@<TRIPOS>MOLECULE
D1Y
   22    22     1     0     0
SMALL
abcg2


@<TRIPOS>ATOM
      1 C10         34.9790    77.2770    63.7010 ca         1 D1Y      -0.031000
      2 C15         33.3090    78.3400    62.3670 ca         1 D1Y       0.195000
      3 C02         38.0500    81.3540    65.1550 c          1 D1Y       0.706200
      4 C04         37.1940    80.9390    63.9420 ce         1 D1Y       0.165900
      5 C06         36.2700    79.9330    64.0070 cf         1 D1Y      -0.534200
      6 C07         35.5040    79.5550    62.8530 c          1 D1Y       0.593900
      7 C09         34.5710    78.4020    62.9730 ca         1 D1Y      -0.141600
      8 C11         34.2010    76.1390    63.8030 ca         1 D1Y      -0.215000
      9 C12         32.9530    76.1090    63.1820 ca         1 D1Y       0.138100
     10 C14         32.5020    77.2190    62.4700 ca         1 D1Y      -0.163000
     11 O01         37.6640    80.9200    66.2630 o          1 D1Y      -0.683000
     12 O03         39.0420    82.0710    64.9050 o          1 D1Y      -0.683000
     13 O05         37.4220    81.6070    62.8220 oh         1 D1Y      -0.519100
     14 O08         35.6250    80.1570    61.7610 o          1 D1Y      -0.638100
     15 O13         32.1290    75.0350    63.2410 oh         1 D1Y      -0.543100
     16 CL16        32.6320    79.7080    61.5110 cl         1 D1Y      -0.196000
     17 H1          35.9500    77.2910    64.1780 ha         1 D1Y       0.138000
     18 H3          36.1200    79.4410    64.9520 ha         1 D1Y       0.212000
     19 H5          34.5520    75.2780    64.3590 ha         1 D1Y       0.111000
     20 H6          31.5240    77.2010    62.0110 ha         1 D1Y       0.133000
     21 H8          36.7850    81.2240    62.1450 ho         1 D1Y       0.493000
     22 H9          32.5350    74.3280    63.7620 ho         1 D1Y       0.460000
@<TRIPOS>BOND
     1     1     7 ar  
     2     1     8 ar  
     3     1    17 1   
     4     2     7 ar  
     5     2    10 ar  
     6     2    16 1   
     7     3     4 1   
     8     3    11 1   
     9     3    12 1   
    10     4     5 2   
    11     4    13 1   
    12     5     6 1   
    13     5    18 1   
    14     6     7 1   
    15     6    14 2   
    16     8     9 ar  
    17     8    19 1   
    18     9    10 ar  
    19     9    15 1   
    20    10    20 1   
    21    13    21 1   
    22    15    22 1   
@<TRIPOS>SUBSTRUCTURE
     1 D1Y         1 TEMP              0 ****  ****    0 ROOT
