@<TRIPOS>MOLECULE
D1Z
   75    79     1     0     0
SMALL
No Charge or Current Charge


@<TRIPOS>ATOM
      1 O20         -4.5620     1.0240    -1.5170 o          1 D1Z      -0.599100
      2 C19         -3.9410     1.2520    -0.4880 c          1 D1Z       0.603100
      3 C21         -2.7890     2.2800    -0.4360 c6         1 D1Z      -0.141700
      4 C39         -1.5520     1.8640    -1.2770 c6         1 D1Z      -0.105900
      5 C38         -0.4390     2.9340    -1.1680 c6         1 D1Z       0.155100
      6 O37         -0.9670     4.2320    -1.5210 os         1 D1Z      -0.447000
      7 C36         -2.0160     4.7000    -0.6430 c6         1 D1Z       0.155100
      8 C35         -3.2330     3.7440    -0.7040 c6         1 D1Z      -0.105900
      9 N18         -4.2180     0.6060     0.6950 ns         1 D1Z      -0.492900
     10 C17         -5.1240    -0.5430     0.8290 c3         1 D1Z       0.115000
     11 C15         -4.6450    -1.8020     0.0470 c6         1 D1Z       0.093300
     12 C14         -5.4130    -3.0890     0.4260 c6         1 D1Z       0.125600
     13 O13         -4.8550    -4.2210    -0.2800 os         1 D1Z      -0.328100
     14 C12         -3.4780    -4.2920    -0.3950 ca         1 D1Z       0.053100
     15 C10         -2.8890    -5.4750    -0.8660 ca         1 D1Z      -0.100000
     16 C9          -1.4930    -5.5510    -1.0120 ca         1 D1Z      -0.113000
     17 C8          -0.6850    -4.4450    -0.6900 ca         1 D1Z      -0.099000
     18 O16         -3.2400    -1.9890     0.3210 os         1 D1Z      -0.324100
     19 C11         -2.6620    -3.1780    -0.0730 ca         1 D1Z       0.088100
     20 C7          -1.2490    -3.2360    -0.2050 cp         1 D1Z      -0.132500
     21 C3          -0.3670    -2.0640     0.0950 cp         1 D1Z       0.406500
     22 N2          -0.5070    -1.4610     1.2940 nb         1 D1Z      -0.713000
     23 C4           0.5740    -1.6030    -0.8560 ca         1 D1Z      -0.144000
     24 C5           1.3730    -0.4800    -0.5790 ca         1 D1Z      -0.132000
     25 C6           1.2290     0.1630     0.6660 ca         1 D1Z       0.264000
     26 C1           0.2500    -0.3730     1.5740 ca         1 D1Z       0.529300
     27 O22          0.0630     0.2710     2.7870 os         1 D1Z      -0.479300
     28 C23         -0.9110    -0.1970     3.7410 c3         1 D1Z       0.164900
     29 N24          1.9840     1.3270     0.9700 nu         1 D1Z      -0.976000
     30 C25          3.1000     1.9390     0.3980 ca         1 D1Z       0.304000
     31 C30          3.2150     3.3350     0.4700 ca         1 D1Z      -0.167000
     32 C29          4.3290     3.9850    -0.0870 ca         1 D1Z      -0.077000
     33 C28          5.3410     3.2350    -0.7080 ca         1 D1Z      -0.140000
     34 C27          5.2470     1.8300    -0.7690 ca         1 D1Z      -0.053300
     35 C26          4.1240     1.1900    -0.2090 ca         1 D1Z      -0.138000
     36 C31          6.3500     1.0050    -1.4280 c3         1 D1Z       0.208100
     37 N32          7.0960     0.1410    -0.4780 n3         1 D1Z      -0.714600
     38 C34          8.0100    -0.7950    -1.1690 c3         1 D1Z       0.149600
     39 C33          7.7790     0.9040     0.5920 c3         1 D1Z       0.149600
     40 H1          -2.4420     2.2700     0.6080 hc         1 D1Z       0.050700
     41 H2          -1.1750     0.8890    -0.9420 hc         1 D1Z       0.064200
     42 H3          -1.8380     1.7440    -2.3310 hc         1 D1Z       0.064200
     43 H4          -0.0440     2.9720    -0.1430 h1         1 D1Z       0.043450
     44 H5           0.3910     2.6850    -1.8450 h1         1 D1Z       0.043450
     45 H6          -1.6280     4.7580     0.3850 h1         1 D1Z       0.043450
     46 H7          -2.3170     5.7120    -0.9510 h1         1 D1Z       0.043450
     47 H8          -3.7020     3.8170    -1.6960 hc         1 D1Z       0.064200
     48 H9          -3.9920     4.0560     0.0270 hc         1 D1Z       0.064200
     49 H10         -3.6450     0.8560     1.4910 hn         1 D1Z       0.317500
     50 H11         -5.2050    -0.7970     1.8940 h1         1 D1Z       0.064700
     51 H12         -6.1240    -0.2580     0.4730 h1         1 D1Z       0.064700
     52 H13         -4.7660    -1.6190    -1.0310 h1         1 D1Z       0.082700
     53 H14         -5.3240    -3.2680     1.5070 h1         1 D1Z       0.066700
     54 H15         -6.4800    -2.9970     0.1770 h1         1 D1Z       0.066700
     55 H16         -3.5120    -6.3290    -1.1210 ha         1 D1Z       0.129000
     56 H17         -1.0360    -6.4670    -1.3800 ha         1 D1Z       0.120000
     57 H18          0.3930    -4.5250    -0.8140 ha         1 D1Z       0.121000
     58 H19          0.6560    -2.1050    -1.8160 ha         1 D1Z       0.130000
     59 H20          2.0590    -0.1050    -1.3310 ha         1 D1Z       0.135000
     60 H21         -0.9110     0.4440     4.6310 h1         1 D1Z       0.044033
     61 H22         -1.9210    -0.1820     3.3110 h1         1 D1Z       0.044033
     62 H23         -0.6830    -1.2230     4.0610 h1         1 D1Z       0.044033
     63 H24          1.6110     1.8340     1.7760 hn         1 D1Z       0.504000
     64 H25          2.4350     3.9220     0.9470 ha         1 D1Z       0.112000
     65 H26          4.4100     5.0690    -0.0350 ha         1 D1Z       0.113000
     66 H27          6.2020     3.7440    -1.1340 ha         1 D1Z       0.113000
     67 H28          4.0670     0.1070    -0.2250 ha         1 D1Z       0.139000
     68 H29          5.8820     0.3820    -2.2030 h1         1 D1Z       0.038700
     69 H30          7.0460     1.6800    -1.9450 h1         1 D1Z       0.038700
     70 H32          8.4870    -1.4740    -0.4500 h1         1 D1Z       0.031700
     71 H33          7.4620    -1.4070    -1.8980 h1         1 D1Z       0.031700
     72 H34          8.8000    -0.2490    -1.7030 h1         1 D1Z       0.031700
     73 H35          7.0620     1.5030     1.1690 h1         1 D1Z       0.031700
     74 H36          8.2830     0.2250     1.2920 h1         1 D1Z       0.031700
     75 H37          8.5320     1.5830     0.1700 h1         1 D1Z       0.031700
@<TRIPOS>BOND
     1     1     2 2   
     2     2     3 1   
     3     2     9 1   
     4     3     4 1   
     5     3     8 1   
     6     3    40 1   
     7     4     5 1   
     8     4    41 1   
     9     4    42 1   
    10     5     6 1   
    11     5    43 1   
    12     5    44 1   
    13     6     7 1   
    14     7     8 1   
    15     7    45 1   
    16     7    46 1   
    17     8    47 1   
    18     8    48 1   
    19     9    10 1   
    20     9    49 1   
    21    10    11 1   
    22    10    50 1   
    23    10    51 1   
    24    11    12 1   
    25    11    18 1   
    26    11    52 1   
    27    12    13 1   
    28    12    53 1   
    29    12    54 1   
    30    13    14 1   
    31    14    15 ar  
    32    14    19 ar  
    33    15    16 ar  
    34    15    55 1   
    35    16    17 ar  
    36    16    56 1   
    37    17    20 ar  
    38    17    57 1   
    39    18    19 1   
    40    19    20 ar  
    41    20    21 1   
    42    21    22 ar  
    43    21    23 ar  
    44    22    26 ar  
    45    23    24 ar  
    46    23    58 1   
    47    24    25 ar  
    48    24    59 1   
    49    25    26 ar  
    50    25    29 1   
    51    26    27 1   
    52    27    28 1   
    53    28    60 1   
    54    28    61 1   
    55    28    62 1   
    56    29    30 1   
    57    29    63 1   
    58    30    31 ar  
    59    30    35 ar  
    60    31    32 ar  
    61    31    64 1   
    62    32    33 ar  
    63    32    65 1   
    64    33    34 ar  
    65    33    66 1   
    66    34    35 ar  
    67    34    36 1   
    68    35    67 1   
    69    36    37 1   
    70    36    68 1   
    71    36    69 1   
    72    37    38 1   
    73    37    39 1   
    74    38    70 1   
    75    38    71 1   
    76    38    72 1   
    77    39    73 1   
    78    39    74 1   
    79    39    75 1   
@<TRIPOS>SUBSTRUCTURE
     1 D1Z         1 TEMP              0 ****  ****    0 ROOT
