@<TRIPOS>MOLECULE
D1Z
   75    79     1     0     0
SMALL
abcg2


@<TRIPOS>ATOM
      1 O20         -4.8980     1.2570    -1.1630 o          1 D1Z      -0.599100
      2 C19         -4.0590     1.3480    -0.2780 c          1 D1Z       0.603100
      3 C21         -2.8890     2.3060    -0.3510 c6         1 D1Z      -0.141700
      4 C39         -1.7470     1.6420    -1.1330 c6         1 D1Z      -0.105900
      5 C38         -0.5830     2.6110    -1.2580 c6         1 D1Z       0.155100
      6 O37         -0.9700     3.8200    -1.8720 os         1 D1Z      -0.447000
      7 C36         -1.9860     4.4840    -1.1510 c6         1 D1Z       0.155100
      8 C35         -3.2410     3.6350    -1.0070 c6         1 D1Z      -0.105900
      9 N18         -4.0730     0.5710     0.8220 ns         1 D1Z      -0.492900
     10 C17         -4.9040    -0.5980     0.9640 c3         1 D1Z       0.115000
     11 C15         -4.3910    -1.7740     0.1450 c6         1 D1Z       0.093300
     12 C14         -5.0830    -3.0700     0.5080 c6         1 D1Z       0.125600
     13 O13         -4.5480    -4.1420    -0.2490 os         1 D1Z      -0.328100
     14 C12         -3.2010    -4.1370    -0.3960 ca         1 D1Z       0.053100
     15 C10         -2.5950    -5.2700    -0.9230 ca         1 D1Z      -0.100000
     16 C9          -1.2230    -5.2960    -1.1110 ca         1 D1Z      -0.113000
     17 C8          -0.4530    -4.1950    -0.7670 ca         1 D1Z      -0.099000
     18 O16         -3.0040    -1.8970     0.4190 os         1 D1Z      -0.324100
     19 C11         -2.4280    -3.0240    -0.0520 ca         1 D1Z       0.088100
     20 C7          -1.0420    -3.0480    -0.2390 cp         1 D1Z      -0.132500
     21 C3          -0.2170    -1.8630     0.0730 cp         1 D1Z       0.406500
     22 N2          -0.3770    -1.2760     1.2680 nb         1 D1Z      -0.713000
     23 C4           0.6940    -1.3700    -0.8410 ca         1 D1Z      -0.144000
     24 C5           1.4550    -0.2500    -0.5140 ca         1 D1Z      -0.132000
     25 C6           1.3050     0.3530     0.7230 ca         1 D1Z       0.264000
     26 C1           0.3380    -0.2330     1.5780 ca         1 D1Z       0.529300
     27 O22          0.1670     0.3720     2.7610 os         1 D1Z      -0.479300
     28 C23         -0.8260    -0.1440     3.6330 c3         1 D1Z       0.164900
     29 N24          1.9760     1.4760     1.1570 nu         1 D1Z      -0.976000
     30 C25          3.0840     2.0790     0.5760 ca         1 D1Z       0.304000
     31 C30          3.2130     3.4690     0.6730 ca         1 D1Z      -0.167000
     32 C29          4.3310     4.0990     0.1560 ca         1 D1Z      -0.077000
     33 C28          5.3270     3.3670    -0.4790 ca         1 D1Z      -0.140000
     34 C27          5.2090     1.9860    -0.5840 ca         1 D1Z      -0.053300
     35 C26          4.0960     1.3480    -0.0460 ca         1 D1Z      -0.138000
     36 C31          6.2630     1.1810    -1.3000 c3         1 D1Z       0.208100
     37 N32          6.6040    -0.0480    -0.6140 n3         1 D1Z      -0.714600
     38 C34          7.3860    -0.9210    -1.4620 c3         1 D1Z       0.149600
     39 C33          7.2810     0.2010     0.6400 c3         1 D1Z       0.149600
     40 H1          -2.5280     2.5070     0.6660 hc         1 D1Z       0.050700
     41 H2          -1.4150     0.7280    -0.6360 hc         1 D1Z       0.064200
     42 H3          -2.0980     1.3560    -2.1280 hc         1 D1Z       0.064200
     43 H4          -0.1600     2.8070    -0.2600 h1         1 D1Z       0.043450
     44 H5           0.2120     2.1800    -1.8690 h1         1 D1Z       0.043450
     45 H6          -1.6210     4.7680    -0.1530 h1         1 D1Z       0.043450
     46 H7          -2.2080     5.4060    -1.6910 h1         1 D1Z       0.043450
     47 H8          -3.6860     3.4610    -1.9900 hc         1 D1Z       0.064200
     48 H9          -3.9730     4.1820    -0.4080 hc         1 D1Z       0.064200
     49 H10         -3.3010     0.6570     1.4610 hn         1 D1Z       0.317500
     50 H11         -4.9300    -0.8590     2.0230 h1         1 D1Z       0.064700
     51 H12         -5.9270    -0.3720     0.6620 h1         1 D1Z       0.064700
     52 H13         -4.5320    -1.5730    -0.9250 h1         1 D1Z       0.082700
     53 H14         -4.9680    -3.2680     1.5800 h1         1 D1Z       0.066700
     54 H15         -6.1480    -3.0200     0.2810 h1         1 D1Z       0.066700
     55 H16         -3.2080    -6.1230    -1.1870 ha         1 D1Z       0.129000
     56 H17         -0.7540    -6.1810    -1.5170 ha         1 D1Z       0.120000
     57 H18          0.6200    -4.2210    -0.9040 ha         1 D1Z       0.121000
     58 H19          0.8040    -1.8270    -1.8150 ha         1 D1Z       0.130000
     59 H20          2.1410     0.1530    -1.2460 ha         1 D1Z       0.135000
     60 H21         -0.8500     0.5240     4.4890 h1         1 D1Z       0.044033
     61 H22         -1.8100    -0.1660     3.1620 h1         1 D1Z       0.044033
     62 H23         -0.5860    -1.1550     3.9660 h1         1 D1Z       0.044033
     63 H24          1.5020     2.0260     1.8570 hn         1 D1Z       0.504000
     64 H25          2.4360     4.0480     1.1570 ha         1 D1Z       0.112000
     65 H26          4.4230     5.1740     0.2450 ha         1 D1Z       0.113000
     66 H27          6.1960     3.8680    -0.8860 ha         1 D1Z       0.113000
     67 H28          4.0480     0.2670    -0.0890 ha         1 D1Z       0.139000
     68 H29          5.8800     0.9150    -2.2910 h1         1 D1Z       0.038700
     69 H30          7.1460     1.8180    -1.4750 h1         1 D1Z       0.038700
     70 H32          7.5780    -1.8640    -0.9480 h1         1 D1Z       0.031700
     71 H33          6.8400    -1.1450    -2.3800 h1         1 D1Z       0.031700
     72 H34          8.3600    -0.4930    -1.7470 h1         1 D1Z       0.031700
     73 H35          6.6590     0.8040     1.3020 h1         1 D1Z       0.031700
     74 H36          7.4830    -0.7450     1.1450 h1         1 D1Z       0.031700
     75 H37          8.2430     0.7230     0.5130 h1         1 D1Z       0.031700
@<TRIPOS>BOND
     1     1     2 2   
     2     2     3 1   
     3     2     9 1   
     4     3     4 1   
     5     3     8 1   
     6     3    40 1   
     7     4     5 1   
     8     4    41 1   
     9     4    42 1   
    10     5     6 1   
    11     5    43 1   
    12     5    44 1   
    13     6     7 1   
    14     7     8 1   
    15     7    45 1   
    16     7    46 1   
    17     8    47 1   
    18     8    48 1   
    19     9    10 1   
    20     9    49 1   
    21    10    11 1   
    22    10    50 1   
    23    10    51 1   
    24    11    12 1   
    25    11    18 1   
    26    11    52 1   
    27    12    13 1   
    28    12    53 1   
    29    12    54 1   
    30    13    14 1   
    31    14    15 ar  
    32    14    19 ar  
    33    15    16 ar  
    34    15    55 1   
    35    16    17 ar  
    36    16    56 1   
    37    17    20 ar  
    38    17    57 1   
    39    18    19 1   
    40    19    20 ar  
    41    20    21 1   
    42    21    22 ar  
    43    21    23 ar  
    44    22    26 ar  
    45    23    24 ar  
    46    23    58 1   
    47    24    25 ar  
    48    24    59 1   
    49    25    26 ar  
    50    25    29 1   
    51    26    27 1   
    52    27    28 1   
    53    28    60 1   
    54    28    61 1   
    55    28    62 1   
    56    29    30 1   
    57    29    63 1   
    58    30    31 ar  
    59    30    35 ar  
    60    31    32 ar  
    61    31    64 1   
    62    32    33 ar  
    63    32    65 1   
    64    33    34 ar  
    65    33    66 1   
    66    34    35 ar  
    67    34    36 1   
    68    35    67 1   
    69    36    37 1   
    70    36    68 1   
    71    36    69 1   
    72    37    38 1   
    73    37    39 1   
    74    38    70 1   
    75    38    71 1   
    76    38    72 1   
    77    39    73 1   
    78    39    74 1   
    79    39    75 1   
@<TRIPOS>SUBSTRUCTURE
     1 D1Z         1 TEMP              0 ****  ****    0 ROOT
