@<TRIPOS>MOLECULE
D20
   35    34     1     0     0
SMALL
abcg2


@<TRIPOS>ATOM
      1 N           15.9680     4.5330    67.6950 n8         1 D20      -1.007200
      2 C1          16.1530     5.2710    66.4390 c3         1 D20       0.018500
      3 C           14.8550     6.0210    66.0400 c          1 D20       0.707000
      4 O           13.7810     5.6740    66.5930 o          1 D20      -0.731500
      5 C2          16.6280     4.3960    65.2650 c3         1 D20      -0.080400
      6 C3          15.6340     3.3170    64.8420 c3         1 D20      -0.112400
      7 C4          16.1340     2.4680    63.6710 c3         1 D20       0.207800
      8 N5          16.3870     3.2100    62.4350 nu         1 D20      -0.943400
      9 C6          15.4080     3.8840    61.7220 c2         1 D20       0.836100
     10 N61         14.1430     3.3960    61.8770 nu         1 D20      -0.911400
     11 N62         15.6520     4.8890    60.9380 n2         1 D20      -0.906100
     12 C7          13.0070     3.8150    61.0820 c3         1 D20       0.237800
     13 C8          13.2580     1.5780    58.1580 c3         1 D20       0.145900
     14 O9          14.9840     6.9120    65.1620 o          1 D20      -0.731500
     15 O10         13.5780     2.5980    59.0900 os         1 D20      -0.440000
     16 C10         12.5660     2.7770    60.0660 c3         1 D20       0.123600
     17 HN1         14.9890     4.2690    67.7470 hn         1 D20       0.383000
     18 HN2         16.5160     3.6790    67.6920 hn         1 D20       0.383000
     19 H1          16.9160     6.0420    66.5900 h1         1 D20       0.049700
     20 H2C1        17.5770     3.9240    65.5460 hc         1 D20       0.023200
     21 H2C2        16.8400     5.0550    64.4210 hc         1 D20       0.023200
     22 H3C1        14.6810     3.7770    64.5710 hc         1 D20       0.058700
     23 H3C2        15.4310     2.6460    65.6810 hc         1 D20       0.058700
     24 H4C1        15.4340     1.6540    63.4710 h1         1 D20       0.029700
     25 H4C2        17.0790     1.9920    63.9370 h1         1 D20       0.029700
     26 H5          17.2650     3.7050    62.4350 hn         1 D20       0.459000
     27 H61         14.0360     2.5380    62.3900 hn         1 D20       0.475000
     28 H62         16.6340     5.1410    60.9970 hn         1 D20       0.366400
     29 H7C1        13.2740     4.7410    60.5780 h1         1 D20       0.075700
     30 H7C2        12.1580     4.0220    61.7400 h1         1 D20       0.075700
     31 H101        11.6340     3.1110    59.5900 h1         1 D20       0.014700
     32 H102        12.3600     1.8210    60.5680 h1         1 D20       0.014700
     33 H8C1        12.3400     1.8180    57.6070 h1         1 D20       0.021367
     34 H8C2        13.1230     0.6130    58.6600 h1         1 D20       0.021367
     35 H8C3        14.0880     1.5050    57.4560 h1         1 D20       0.021367
@<TRIPOS>BOND
     1     1     2 1   
     2     1    17 1   
     3     1    18 1   
     4     2     3 1   
     5     2     5 1   
     6     2    19 1   
     7     3     4 1   
     8     3    14 1   
     9     5     6 1   
    10     5    20 1   
    11     5    21 1   
    12     6     7 1   
    13     6    22 1   
    14     6    23 1   
    15     7     8 1   
    16     7    24 1   
    17     7    25 1   
    18     8     9 1   
    19     8    26 1   
    20     9    10 1   
    21     9    11 2   
    22    10    12 1   
    23    10    27 1   
    24    11    28 1   
    25    12    16 1   
    26    12    29 1   
    27    12    30 1   
    28    13    15 1   
    29    13    33 1   
    30    13    34 1   
    31    13    35 1   
    32    15    16 1   
    33    16    31 1   
    34    16    32 1   
@<TRIPOS>SUBSTRUCTURE
     1 D20         1 TEMP              0 ****  ****    0 ROOT
