@<TRIPOS>MOLECULE
D20
   35    34     1     0     0
SMALL
No Charge or Current Charge


@<TRIPOS>ATOM
      1 N           16.4820     4.1190    67.8730 n8         1 D20      -1.007200
      2 C1          16.5190     5.1280    66.7510 c3         1 D20       0.018500
      3 C           15.3520     6.2050    66.7010 c          1 D20       0.707000
      4 O           14.2220     5.8690    67.0400 o          1 D20      -0.731500
      5 C2          16.6990     4.4080    65.3850 c3         1 D20      -0.080400
      6 C3          15.5050     3.5190    64.9390 c3         1 D20      -0.112400
      7 C4          15.7450     2.7610    63.6140 c3         1 D20       0.207800
      8 N5          15.8390     3.6750    62.4670 nu         1 D20      -0.943400
      9 C6          14.8090     4.3860    62.0230 c2         1 D20       0.836100
     10 N61         14.0550     3.5790    61.2920 nu         1 D20      -0.911400
     11 N62         14.9720     5.5940    61.7450 n2         1 D20      -0.906100
     12 C7          13.3210     3.9880    60.0770 c3         1 D20       0.237800
     13 C8          12.9960     0.5840    58.5020 c3         1 D20       0.145900
     14 O9          15.6500     7.3650    66.4470 o          1 D20      -0.731500
     15 O10         13.5550     1.7570    59.1130 os         1 D20      -0.440000
     16 C10         12.5910     2.7880    59.4190 c3         1 D20       0.123600
     17 HN1         15.5700     3.6480    67.8530 hn         1 D20       0.383000
     18 HN2         17.1540     3.3690    67.6760 hn         1 D20       0.383000
     19 H1          17.4400     5.7080    66.9040 h1         1 D20       0.049700
     20 H2C1        17.6060     3.7920    65.4230 hc         1 D20       0.023200
     21 H2C2        16.8810     5.1720    64.6190 hc         1 D20       0.023200
     22 H3C1        14.5970     4.1270    64.8490 hc         1 D20       0.058700
     23 H3C2        15.3040     2.7730    65.7160 hc         1 D20       0.058700
     24 H4C1        14.9220     2.0510    63.4560 h1         1 D20       0.029700
     25 H4C2        16.6720     2.1770    63.6980 h1         1 D20       0.029700
     26 H5          16.7270     4.1460    62.3540 hn         1 D20       0.459000
     27 H61         14.4940     2.6710    61.2460 hn         1 D20       0.475000
     28 H62         15.7790     5.9180    62.2820 hn         1 D20       0.366400
     29 H7C1        14.0130     4.4210    59.3410 h1         1 D20       0.075700
     30 H7C2        12.5770     4.7600    60.3230 h1         1 D20       0.075700
     31 H101        12.0880     3.1300    58.5050 h1         1 D20       0.014700
     32 H102        11.8260     2.4060    60.1090 h1         1 D20       0.014700
     33 H8C1        12.5090     0.8340    57.5510 h1         1 D20       0.021367
     34 H8C2        12.2540     0.1170    59.1620 h1         1 D20       0.021367
     35 H8C3        13.7850    -0.1520    58.2990 h1         1 D20       0.021367
@<TRIPOS>BOND
     1     1     2 1   
     2     1    17 1   
     3     1    18 1   
     4     2     3 1   
     5     2     5 1   
     6     2    19 1   
     7     3     4 1   
     8     3    14 1   
     9     5     6 1   
    10     5    20 1   
    11     5    21 1   
    12     6     7 1   
    13     6    22 1   
    14     6    23 1   
    15     7     8 1   
    16     7    24 1   
    17     7    25 1   
    18     8     9 1   
    19     8    26 1   
    20     9    10 1   
    21     9    11 2   
    22    10    12 1   
    23    10    27 1   
    24    11    28 1   
    25    12    16 1   
    26    12    29 1   
    27    12    30 1   
    28    13    15 1   
    29    13    33 1   
    30    13    34 1   
    31    13    35 1   
    32    15    16 1   
    33    16    31 1   
    34    16    32 1   
@<TRIPOS>SUBSTRUCTURE
     1 D20         1 TEMP              0 ****  ****    0 ROOT
