@<TRIPOS>MOLECULE
D22
   52    51     1     0     0
SMALL
No Charge or Current Charge


@<TRIPOS>ATOM
      1 C2           8.9600    -0.2500    -0.0100 c3         1 D22      -0.074900
      2 C3           7.6220     0.5190    -0.0180 c3         1 D22      -0.075900
      3 C4           6.3890    -0.4110     0.0030 c3         1 D22      -0.074400
      4 C5           5.0500     0.3590    -0.0060 c3         1 D22      -0.074400
      5 C6           3.8180    -0.5710     0.0160 c3         1 D22      -0.074400
      6 C7           2.4780     0.1980     0.0070 c3         1 D22      -0.079400
      7 C8           1.2510    -0.7360     0.0280 c3         1 D22       0.160800
      8 C10         -1.2350    -0.7360     0.0250 c3         1 D22       0.160800
      9 C17        -10.1750     0.6740    -0.0540 c3         1 D22      -0.088600
     10 C16         -8.9450    -0.2540    -0.0300 c3         1 D22      -0.074900
     11 C15         -7.6060     0.5170    -0.0360 c3         1 D22      -0.075900
     12 C14         -6.3730    -0.4130    -0.0110 c3         1 D22      -0.074400
     13 C13         -5.0350     0.3570    -0.0170 c3         1 D22      -0.074400
     14 C12         -3.8020    -0.5730     0.0080 c3         1 D22      -0.074400
     15 C11         -2.4620     0.1970     0.0010 c3         1 D22      -0.079400
     16 N9           0.0080     0.0550     0.0150 n7         1 D22      -0.862400
     17 C1          10.1900     0.6770    -0.0310 c3         1 D22      -0.088600
     18 H2           9.0090    -0.8860     0.8830 hc         1 D22       0.036700
     19 H2A          9.0020    -0.9170    -0.8800 hc         1 D22       0.036700
     20 H3           7.5850     1.1870     0.8520 hc         1 D22       0.037200
     21 H3A          7.5780     1.1550    -0.9120 hc         1 D22       0.037200
     22 H4           6.4260    -1.0780    -0.8670 hc         1 D22       0.036950
     23 H4A          6.4330    -1.0470     0.8960 hc         1 D22       0.036950
     24 H5           5.0130     1.0260     0.8640 hc         1 D22       0.037700
     25 H5A          5.0060     0.9950    -0.8990 hc         1 D22       0.037700
     26 H6           3.8550    -1.2390    -0.8550 hc         1 D22       0.037200
     27 H6A          3.8610    -1.2070     0.9090 hc         1 D22       0.037200
     28 H7           2.4410     0.8640     0.8770 hc         1 D22       0.044700
     29 H7A          2.4330     0.8310    -0.8880 hc         1 D22       0.044700
     30 H8           1.2900    -1.3990    -0.8480 h1         1 D22       0.027200
     31 H8A          1.2940    -1.3650     0.9280 h1         1 D22       0.027200
     32 H10         -1.2800    -1.3650     0.9250 h1         1 D22       0.027200
     33 H10A        -1.2720    -1.3990    -0.8500 h1         1 D22       0.027200
     34 H17        -11.0990     0.0830    -0.0490 hc         1 D22       0.031367
     35 H17A       -10.1830     1.3310     0.8230 hc         1 D22       0.031367
     36 H17B       -10.1720     1.2980    -0.9560 hc         1 D22       0.031367
     37 H16         -8.9950    -0.8890     0.8630 hc         1 D22       0.036700
     38 H16A        -8.9840    -0.9210    -0.9000 hc         1 D22       0.036700
     39 H15         -7.5610     1.1520    -0.9290 hc         1 D22       0.037200
     40 H15A        -7.5710     1.1840     0.8350 hc         1 D22       0.037200
     41 H14         -6.4190    -1.0490     0.8820 hc         1 D22       0.036950
     42 H14A        -6.4080    -1.0810    -0.8810 hc         1 D22       0.036950
     43 H13         -4.9890     0.9930    -0.9100 hc         1 D22       0.037700
     44 H13A        -5.0000     1.0250     0.8530 hc         1 D22       0.037700
     45 H12         -3.8470    -1.2080     0.9010 hc         1 D22       0.037200
     46 H12A        -3.8370    -1.2400    -0.8630 hc         1 D22       0.037200
     47 H11         -2.4270     0.8640     0.8720 hc         1 D22       0.044700
     48 H11A        -2.4160     0.8300    -0.8930 hc         1 D22       0.044700
     49 HN9          0.0070     0.6580     0.8460 hn         1 D22       0.403000
     50 H1          11.1150     0.0870    -0.0240 hc         1 D22       0.031367
     51 H1A         10.1900     1.3030    -0.9320 hc         1 D22       0.031367
     52 H1B         10.1960     1.3340     0.8470 hc         1 D22       0.031367
@<TRIPOS>BOND
     1     1     2 1   
     2     1    17 1   
     3     1    18 1   
     4     1    19 1   
     5     2     3 1   
     6     2    20 1   
     7     2    21 1   
     8     3     4 1   
     9     3    22 1   
    10     3    23 1   
    11     4     5 1   
    12     4    24 1   
    13     4    25 1   
    14     5     6 1   
    15     5    26 1   
    16     5    27 1   
    17     6     7 1   
    18     6    28 1   
    19     6    29 1   
    20     7    16 1   
    21     7    30 1   
    22     7    31 1   
    23     8    15 1   
    24     8    16 1   
    25     8    32 1   
    26     8    33 1   
    27     9    10 1   
    28     9    34 1   
    29     9    35 1   
    30     9    36 1   
    31    10    11 1   
    32    10    37 1   
    33    10    38 1   
    34    11    12 1   
    35    11    39 1   
    36    11    40 1   
    37    12    13 1   
    38    12    41 1   
    39    12    42 1   
    40    13    14 1   
    41    13    43 1   
    42    13    44 1   
    43    14    15 1   
    44    14    45 1   
    45    14    46 1   
    46    15    47 1   
    47    15    48 1   
    48    16    49 1   
    49    17    50 1   
    50    17    51 1   
    51    17    52 1   
@<TRIPOS>SUBSTRUCTURE
     1 D22         1 TEMP              0 ****  ****    0 ROOT
