@<TRIPOS>MOLECULE
D22
   52    51     1     0     0
SMALL
bcc


@<TRIPOS>ATOM
      1 C2           8.8440    -0.3650     0.0390 c3         1 D22      -0.074900
      2 C3           7.5470     0.4350     0.0040 c3         1 D22      -0.075900
      3 C4           6.2970    -0.4350     0.0220 c3         1 D22      -0.074400
      4 C5           5.0050     0.3700    -0.0160 c3         1 D22      -0.074400
      5 C6           3.7530    -0.4980     0.0020 c3         1 D22      -0.074400
      6 C7           2.4640     0.3130    -0.0370 c3         1 D22      -0.079400
      7 C8           1.2180    -0.5600    -0.0180 c3         1 D22       0.160800
      8 C10         -1.2030    -0.5610    -0.0290 c3         1 D22       0.160800
      9 C17        -10.0660     0.5160    -0.0020 c3         1 D22      -0.088600
     10 C16         -8.8280    -0.3690     0.0150 c3         1 D22      -0.074900
     11 C15         -7.5320     0.4320    -0.0100 c3         1 D22      -0.075900
     12 C14         -6.2810    -0.4380     0.0040 c3         1 D22      -0.074400
     13 C13         -4.9890     0.3690    -0.0240 c3         1 D22      -0.074400
     14 C12         -3.7370    -0.4990    -0.0120 c3         1 D22      -0.074400
     15 C11         -2.4480     0.3120    -0.0370 c3         1 D22      -0.079400
     16 N9           0.0080     0.2380    -0.0670 n7         1 D22      -0.807200
     17 C1          10.0820     0.5200     0.0170 c3         1 D22      -0.088600
     18 H2           8.8560    -0.9940     0.9350 hc         1 D22       0.036700
     19 H2A          8.8680    -1.0520    -0.8130 hc         1 D22       0.036700
     20 H3           7.5240     1.1220     0.8580 hc         1 D22       0.037200
     21 H3A          7.5370     1.0670    -0.8910 hc         1 D22       0.037200
     22 H4           6.3220    -1.1240    -0.8300 hc         1 D22       0.036950
     23 H4A          6.3060    -1.0650     0.9200 hc         1 D22       0.036950
     24 H5           4.9800     1.0580     0.8360 hc         1 D22       0.037700
     25 H5A          4.9960     1.0000    -0.9130 hc         1 D22       0.037700
     26 H6           3.7760    -1.1860    -0.8500 hc         1 D22       0.037200
     27 H6A          3.7610    -1.1280     0.8990 hc         1 D22       0.037200
     28 H7           2.4410     0.9960     0.8200 hc         1 D22       0.044700
     29 H7A          2.4490     0.9410    -0.9340 hc         1 D22       0.044700
     30 H8           1.2280    -1.2200    -0.8920 h1         1 D22       0.027200
     31 H8A          1.2520    -1.2220     0.8630 h1         1 D22       0.027200
     32 H10         -1.2360    -1.2340     0.8440 h1         1 D22       0.027200
     33 H10A        -1.2130    -1.2100    -0.9120 h1         1 D22       0.027200
     34 H17        -10.9850    -0.0730     0.0140 hc         1 D22       0.031367
     35 H17A       -10.0850     1.1820     0.8630 hc         1 D22       0.031367
     36 H17B       -10.0910     1.1400    -0.8980 hc         1 D22       0.031367
     37 H16         -8.8430    -1.0050     0.9060 hc         1 D22       0.036700
     38 H16A        -8.8500    -1.0490    -0.8420 hc         1 D22       0.036700
     39 H15         -7.5190     1.0710    -0.9010 hc         1 D22       0.037200
     40 H15A        -7.5100     1.1130     0.8490 hc         1 D22       0.037200
     41 H14         -6.2920    -1.0760     0.8950 hc         1 D22       0.036950
     42 H14A        -6.3030    -1.1180    -0.8550 hc         1 D22       0.036950
     43 H13         -4.9790     1.0060    -0.9150 hc         1 D22       0.037700
     44 H13A        -4.9670     1.0490     0.8350 hc         1 D22       0.037700
     45 H12         -3.7490    -1.1400     0.8770 hc         1 D22       0.037200
     46 H12A        -3.7580    -1.1760    -0.8730 hc         1 D22       0.037200
     47 H11         -2.4250     0.9830     0.8300 hc         1 D22       0.044700
     48 H11A        -2.4320     0.9530    -0.9240 hc         1 D22       0.044700
     49 HN9          0.0040     0.8680     0.7280 hn         1 D22       0.347800
     50 H1          11.0000    -0.0690     0.0430 hc         1 D22       0.031367
     51 H1A         10.1090     1.1350    -0.8840 hc         1 D22       0.031367
     52 H1B         10.0980     1.1940     0.8750 hc         1 D22       0.031367
@<TRIPOS>BOND
     1     1     2 1   
     2     1    17 1   
     3     1    18 1   
     4     1    19 1   
     5     2     3 1   
     6     2    20 1   
     7     2    21 1   
     8     3     4 1   
     9     3    22 1   
    10     3    23 1   
    11     4     5 1   
    12     4    24 1   
    13     4    25 1   
    14     5     6 1   
    15     5    26 1   
    16     5    27 1   
    17     6     7 1   
    18     6    28 1   
    19     6    29 1   
    20     7    16 1   
    21     7    30 1   
    22     7    31 1   
    23     8    15 1   
    24     8    16 1   
    25     8    32 1   
    26     8    33 1   
    27     9    10 1   
    28     9    34 1   
    29     9    35 1   
    30     9    36 1   
    31    10    11 1   
    32    10    37 1   
    33    10    38 1   
    34    11    12 1   
    35    11    39 1   
    36    11    40 1   
    37    12    13 1   
    38    12    41 1   
    39    12    42 1   
    40    13    14 1   
    41    13    43 1   
    42    13    44 1   
    43    14    15 1   
    44    14    45 1   
    45    14    46 1   
    46    15    47 1   
    47    15    48 1   
    48    16    49 1   
    49    17    50 1   
    50    17    51 1   
    51    17    52 1   
@<TRIPOS>SUBSTRUCTURE
     1 D22         1 TEMP              0 ****  ****    0 ROOT
