@<TRIPOS>MOLECULE
D23
   45    47     1     0     0
SMALL
abcg2


@<TRIPOS>ATOM
      1 C1          -4.6330     0.8000     0.5290 ca         1 D23      -0.166000
      2 C2          -5.9600     0.3630     0.5360 ca         1 D23       0.293000
      3 C3          -6.2890    -0.7770    -0.2050 ca         1 D23      -0.171000
      4 C4          -5.3140    -1.4470    -0.9220 ca         1 D23      -0.071000
      5 C5          -3.9970    -1.0100    -0.9230 ca         1 D23      -0.147000
      6 C6          -3.6520     0.1250    -0.1900 cp         1 D23      -0.001000
      7 N7          -6.9070     1.0010     1.3100 nv         1 D23      -1.070000
      8 C8          -2.2590     0.6090    -0.1710 cp         1 D23      -0.039000
      9 C9          -1.9730     1.9890    -0.2260 ca         1 D23      -0.072000
     10 C10         -0.6850     2.4500    -0.2000 ca         1 D23      -0.093000
     11 C11          0.3930     1.5520    -0.1210 ca         1 D23       0.050000
     12 C12          0.1250     0.1700    -0.0770 ca         1 D23      -0.167000
     13 C13         -1.2040    -0.2770    -0.0960 ca         1 D23      -0.067000
     14 N14          1.6630     2.0450    -0.0860 nb         1 D23      -0.169000
     15 C15          2.5910     1.1490    -0.0080 ca         1 D23       0.090300
     16 N16          2.4930    -0.1760     0.0340 nb         1 D23      -0.274000
     17 C17          1.2800    -0.6990    -0.0000 ca         1 D23       0.423900
     18 N18          1.1390    -2.0230     0.0360 nu         1 D23      -0.916100
     19 C19          2.1970    -3.0370     0.1470 c3         1 D23       0.267200
     20 C20          2.9720    -2.8720     1.4550 c3         1 D23      -0.106100
     21 C21          3.1430    -2.9780    -1.0540 c3         1 D23      -0.106100
     22 C22          1.4750    -4.3830     0.1500 c3         1 D23      -0.106100
     23 C23          4.0200     1.6320     0.0290 c3         1 D23       0.275700
     24 F24          4.6880     1.2400    -1.0700 f          1 D23      -0.103333
     25 F25          4.1120     2.9630     0.0850 f          1 D23      -0.103333
     26 F26          4.6800     1.1420     1.0770 f          1 D23      -0.103333
     27 H1          -4.3620     1.6690     1.1190 ha         1 D23       0.115000
     28 H3          -7.3100    -1.1370    -0.2190 ha         1 D23       0.114000
     29 H4          -5.5880    -2.3210    -1.4980 ha         1 D23       0.112000
     30 H5          -3.2580    -1.5280    -1.5200 ha         1 D23       0.113000
     31 HN71        -7.8630     0.8790     1.0220 hn         1 D23       0.448000
     32 HN72        -6.7170     1.9630     1.5340 hn         1 D23       0.448000
     33 H9          -2.7850     2.6980    -0.3090 ha         1 D23       0.121000
     34 H10         -0.4750     3.5100    -0.2470 ha         1 D23       0.139000
     35 H13         -1.4350    -1.3320    -0.0190 ha         1 D23       0.111000
     36 H18          0.2020    -2.3830    -0.0200 hn         1 D23       0.495000
     37 H201         3.5090    -1.9270     1.4860 hc         1 D23       0.048478
     38 H202         2.3020    -2.9170     2.3140 hc         1 D23       0.048478
     39 H203         3.7010    -3.6770     1.5580 hc         1 D23       0.048478
     40 H211         3.8490    -3.8080    -1.0030 hc         1 D23       0.048478
     41 H212         2.5890    -3.0640    -1.9890 hc         1 D23       0.048478
     42 H213         3.7090    -2.0490    -1.0710 hc         1 D23       0.048478
     43 H221         0.7820    -4.4650     0.9900 hc         1 D23       0.048478
     44 H222         0.9120    -4.5360    -0.7730 hc         1 D23       0.048478
     45 H223         2.1930    -5.1970     0.2370 hc         1 D23       0.048478
@<TRIPOS>BOND
     1     1     2 ar  
     2     1     6 ar  
     3     1    27 1   
     4     2     3 ar  
     5     2     7 1   
     6     3     4 ar  
     7     3    28 1   
     8     4     5 ar  
     9     4    29 1   
    10     5     6 ar  
    11     5    30 1   
    12     6     8 1   
    13     7    31 1   
    14     7    32 1   
    15     8     9 ar  
    16     8    13 ar  
    17     9    10 ar  
    18     9    33 1   
    19    10    11 ar  
    20    10    34 1   
    21    11    12 ar  
    22    11    14 ar  
    23    12    13 ar  
    24    12    17 ar  
    25    13    35 1   
    26    14    15 ar  
    27    15    16 ar  
    28    15    23 1   
    29    16    17 ar  
    30    17    18 1   
    31    18    19 1   
    32    18    36 1   
    33    19    20 1   
    34    19    21 1   
    35    19    22 1   
    36    20    37 1   
    37    20    38 1   
    38    20    39 1   
    39    21    40 1   
    40    21    41 1   
    41    21    42 1   
    42    22    43 1   
    43    22    44 1   
    44    22    45 1   
    45    23    24 1   
    46    23    25 1   
    47    23    26 1   
@<TRIPOS>SUBSTRUCTURE
     1 D23         1 TEMP              0 ****  ****    0 ROOT
