@<TRIPOS>MOLECULE
D23
   45    47     1     0     0
SMALL
No Charge or Current Charge


@<TRIPOS>ATOM
      1 C1          -4.7030     0.8550     0.4010 ca         1 D23      -0.166000
      2 C2          -6.0200     0.3750     0.3820 ca         1 D23       0.293000
      3 C3          -6.3080    -0.8540    -0.2270 ca         1 D23      -0.171000
      4 C4          -5.2790    -1.6040    -0.8170 ca         1 D23      -0.071000
      5 C5          -3.9600    -1.1220    -0.7950 ca         1 D23      -0.147000
      6 C6          -3.6420     0.1180    -0.1850 cp         1 D23      -0.001000
      7 N7          -7.0250     1.1040     0.9580 nv         1 D23      -1.070000
      8 C8          -2.2360     0.6330    -0.1620 cp         1 D23      -0.039000
      9 C9          -1.9630     2.0160    -0.2880 ca         1 D23      -0.072000
     10 C10         -0.6450     2.4990    -0.2710 ca         1 D23      -0.093000
     11 C11          0.4420     1.6210    -0.1260 ca         1 D23       0.050000
     12 C12          0.1960     0.2330     0.0070 ca         1 D23      -0.167000
     13 C13         -1.1360    -0.2480    -0.0140 ca         1 D23      -0.067000
     14 N14          1.7020     2.1010    -0.1120 nb         1 D23      -0.169000
     15 C15          2.7130     1.2150     0.0290 ca         1 D23       0.090300
     16 N16          2.5680    -0.1200     0.1680 nb         1 D23      -0.274000
     17 C17          1.3200    -0.6180     0.1550 ca         1 D23       0.423900
     18 N18          1.1740    -2.0050     0.3060 nu         1 D23      -0.916100
     19 C19          2.1650    -3.0900     0.1990 c3         1 D23       0.267200
     20 C20          3.1630    -3.0250     1.3810 c3         1 D23      -0.106100
     21 C21          2.8970    -3.0220    -1.1650 c3         1 D23      -0.106100
     22 C22          1.3670    -4.4110     0.2810 c3         1 D23      -0.106100
     23 C23          4.1390     1.7900     0.0520 c3         1 D23       0.275700
     24 F24          4.3520     2.6560    -0.9660 f          1 D23      -0.103333
     25 F25          4.3820     2.4650     1.2000 f          1 D23      -0.103333
     26 F26          5.0960     0.8360    -0.0480 f          1 D23      -0.103333
     27 H1          -4.4930     1.8020     0.8890 ha         1 D23       0.115000
     28 H3          -7.3270    -1.2310    -0.2450 ha         1 D23       0.114000
     29 H4          -5.5020    -2.5570    -1.2930 ha         1 D23       0.112000
     30 H5          -3.1780    -1.7100    -1.2700 ha         1 D23       0.113000
     31 HN71        -7.9960     0.8250     0.8230 hn         1 D23       0.448000
     32 HN72        -6.8480     2.0550     1.2760 hn         1 D23       0.448000
     33 H9          -2.7800     2.7220    -0.4170 ha         1 D23       0.121000
     34 H10         -0.4660     3.5670    -0.3750 ha         1 D23       0.139000
     35 H13         -1.3380    -1.3080     0.0950 ha         1 D23       0.111000
     36 H18          0.2090    -2.3080     0.3920 hn         1 D23       0.495000
     37 H201         3.8020    -2.1370     1.3280 hc         1 D23       0.048478
     38 H202         2.6320    -3.0070     2.3410 hc         1 D23       0.048478
     39 H203         3.8220    -3.9010     1.3770 hc         1 D23       0.048478
     40 H211         3.5410    -3.8990    -1.2990 hc         1 D23       0.048478
     41 H212         2.1790    -3.0000    -1.9930 hc         1 D23       0.048478
     42 H213         3.5340    -2.1350    -1.2420 hc         1 D23       0.048478
     43 H221         0.8240    -4.4870     1.2310 hc         1 D23       0.048478
     44 H222         0.6390    -4.4840    -0.5370 hc         1 D23       0.048478
     45 H223         2.0380    -5.2760     0.2090 hc         1 D23       0.048478
@<TRIPOS>BOND
     1     1     2 ar  
     2     1     6 ar  
     3     1    27 1   
     4     2     3 ar  
     5     2     7 1   
     6     3     4 ar  
     7     3    28 1   
     8     4     5 ar  
     9     4    29 1   
    10     5     6 ar  
    11     5    30 1   
    12     6     8 1   
    13     7    31 1   
    14     7    32 1   
    15     8     9 ar  
    16     8    13 ar  
    17     9    10 ar  
    18     9    33 1   
    19    10    11 ar  
    20    10    34 1   
    21    11    12 ar  
    22    11    14 ar  
    23    12    13 ar  
    24    12    17 ar  
    25    13    35 1   
    26    14    15 ar  
    27    15    16 ar  
    28    15    23 1   
    29    16    17 ar  
    30    17    18 1   
    31    18    19 1   
    32    18    36 1   
    33    19    20 1   
    34    19    21 1   
    35    19    22 1   
    36    20    37 1   
    37    20    38 1   
    38    20    39 1   
    39    21    40 1   
    40    21    41 1   
    41    21    42 1   
    42    22    43 1   
    43    22    44 1   
    44    22    45 1   
    45    23    24 1   
    46    23    25 1   
    47    23    26 1   
@<TRIPOS>SUBSTRUCTURE
     1 D23         1 TEMP              0 ****  ****    0 ROOT
