@<TRIPOS>MOLECULE
D24
   61    65     1     0     0
SMALL
No Charge or Current Charge


@<TRIPOS>ATOM
      1 C7          -0.3010     1.2620     6.7840 c3         1 D24       0.444000
      2 N2           0.8580     0.5790     7.2590 n7         1 D24      -0.864900
      3 N1           0.1530     2.5880     7.0030 n8         1 D24      -1.018200
      4 C8           0.6560    -0.8390     7.6050 c5         1 D24       0.219400
      5 C9           2.0530    -1.3680     7.9040 c2         1 D24      -0.226700
      6 C10          2.0810    -1.6610     9.2180 ce         1 D24      -0.189500
      7 C11          0.8120    -1.3580     9.8460 ce         1 D24      -0.189500
      8 C12         -0.0640    -0.8630     8.9530 c2         1 D24      -0.226700
      9 C1          -1.2080     0.3320     2.6060 ca         1 D24      -0.115500
     10 C2           0.0340     0.9040     2.9540 ca         1 D24      -0.096750
     11 C3           0.3360     1.2110     4.2930 ca         1 D24      -0.094000
     12 C4          -0.6020     0.9540     5.3160 ca         1 D24      -0.108800
     13 C5          -1.8420     0.3830     4.9700 ca         1 D24      -0.094000
     14 C6          -2.1430     0.0760     3.6320 ca         1 D24      -0.096750
     15 CA          -1.4990     0.0210     1.1990 cc         1 D24       0.193500
     16 O1          -0.6360     0.3430     0.1780 os         1 D24      -0.235000
     17 CB          -2.6150    -0.6190     0.7220 cd         1 D24      -0.170500
     18 C23         -2.4550    -0.7040    -0.6800 cd         1 D24      -0.170500
     19 C22         -1.2520    -0.1090    -0.9660 cc         1 D24       0.193500
     20 C16         -0.6470     0.0370    -2.2970 ca         1 D24      -0.115500
     21 C17          0.6570     0.5580    -2.4230 ca         1 D24      -0.096750
     22 C18          1.2550     0.7080    -3.6860 ca         1 D24      -0.094000
     23 C19          0.5700     0.3310    -4.8620 ca         1 D24      -0.108800
     24 C20         -0.7440    -0.1720    -4.7350 ca         1 D24      -0.094000
     25 C21         -1.3430    -0.3220    -3.4710 ca         1 D24      -0.096750
     26 C13          1.2090     0.5160    -6.2500 c3         1 D24       0.444000
     27 N3           0.8010    -0.5120    -7.1770 n7         1 D24      -0.864900
     28 N4           2.6310     0.3380    -6.2270 n8         1 D24      -1.018200
     29 C14          1.1840    -0.4310    -8.6040 c5         1 D24       0.219400
     30 C15          0.4970    -1.6280    -9.2500 c2         1 D24      -0.226700
     31 CAX         -0.4430    -1.1340   -10.0770 ce         1 D24      -0.189500
     32 CBX         -0.4620     0.3140   -10.0380 ce         1 D24      -0.189500
     33 CCX          0.4660     0.7860    -9.1850 c2         1 D24      -0.226700
     34 H7          -1.1760     1.0660     7.4220 h2         1 D24       0.058700
     35 HN2          1.5190     0.5950     6.4830 hn         1 D24       0.423000
     36 H11A         0.5540     2.5590     7.9420 hn         1 D24       0.404250
     37 H12A         0.9520     2.7390     6.3900 hn         1 D24       0.404250
     38 H8           0.1400    -1.4070     6.8160 h1         1 D24       0.049200
     39 H9           2.8710    -1.5040     7.1950 ha         1 D24       0.195000
     40 H10          2.9340    -2.0700     9.7670 ha         1 D24       0.191750
     41 H11          0.6230    -1.5180    10.9110 ha         1 D24       0.191750
     42 H12         -1.0900    -0.5580     9.1570 ha         1 D24       0.195000
     43 H3           1.3030     1.6490     4.5280 ha         1 D24       0.127500
     44 H5          -2.5780     0.1740     5.7440 ha         1 D24       0.127500
     45 H6          -3.1130    -0.3600     3.4060 ha         1 D24       0.120500
     46 HB          -3.4550    -0.9940     1.2970 ha         1 D24       0.141500
     47 H22         -3.1480    -1.1550    -1.3810 ha         1 D24       0.141500
     48 H2           1.2160     0.8540    -1.5380 ha         1 D24       0.120500
     49 H19          2.2580     1.1250    -3.7450 ha         1 D24       0.127500
     50 H20         -1.3130    -0.4450    -5.6210 ha         1 D24       0.127500
     51 H21         -2.3550    -0.7130    -3.4210 ha         1 D24       0.120500
     52 H4           0.9620     1.5160    -6.6360 h2         1 D24       0.058700
     53 H13          1.0260    -1.4220    -6.7780 hn         1 D24       0.423000
     54 H1'1         2.8260    -0.5940    -5.8600 hn         1 D24       0.404250
     55 H1'2         2.9420     0.3290    -7.1970 hn         1 D24       0.404250
     56 H14          2.2710    -0.4250    -8.7740 h1         1 D24       0.049200
     57 H15          0.7260    -2.6820    -9.0910 ha         1 D24       0.195000
     58 H16         -1.1200    -1.7200   -10.7050 ha         1 D24       0.191750
     59 H17         -1.1520     0.9160   -10.6350 ha         1 D24       0.191750
     60 H18          0.6700     1.8350    -8.9720 ha         1 D24       0.195000
     61 H23          0.7760     1.1130     2.1870 ha         1 D24       0.120500
@<TRIPOS>BOND
     1     1     2 1   
     2     1     3 1   
     3     1    12 1   
     4     1    34 1   
     5     2     4 1   
     6     2    35 1   
     7     3    36 1   
     8     3    37 1   
     9     4     5 1   
    10     4     8 1   
    11     4    38 1   
    12     5     6 2   
    13     5    39 1   
    14     6     7 1   
    15     6    40 1   
    16     7     8 2   
    17     7    41 1   
    18     8    42 1   
    19     9    10 ar  
    20     9    14 ar  
    21     9    15 1   
    22    10    11 ar  
    23    10    61 1   
    24    11    12 ar  
    25    11    43 1   
    26    12    13 ar  
    27    13    14 ar  
    28    13    44 1   
    29    14    45 1   
    30    15    16 1   
    31    15    17 2   
    32    16    19 1   
    33    17    18 1   
    34    17    46 1   
    35    18    19 2   
    36    18    47 1   
    37    19    20 1   
    38    20    21 ar  
    39    20    25 ar  
    40    21    22 ar  
    41    21    48 1   
    42    22    23 ar  
    43    22    49 1   
    44    23    24 ar  
    45    23    26 1   
    46    24    25 ar  
    47    24    50 1   
    48    25    51 1   
    49    26    27 1   
    50    26    28 1   
    51    26    52 1   
    52    27    29 1   
    53    27    53 1   
    54    28    54 1   
    55    28    55 1   
    56    29    30 1   
    57    29    33 1   
    58    29    56 1   
    59    30    31 2   
    60    30    57 1   
    61    31    32 1   
    62    31    58 1   
    63    32    33 2   
    64    32    59 1   
    65    33    60 1   
@<TRIPOS>SUBSTRUCTURE
     1 D24         1 TEMP              0 ****  ****    0 ROOT
