@<TRIPOS>MOLECULE
D24
   61    65     1     0     0
SMALL
abcg2


@<TRIPOS>ATOM
      1 C7          -0.6020     0.5410     6.5140 c3         1 D24       0.444000
      2 N2           0.5920    -0.1880     6.8900 n7         1 D24      -0.864900
      3 N1          -0.3670     1.9580     6.7220 n8         1 D24      -1.018200
      4 C8           0.9190    -0.1340     8.3080 c5         1 D24       0.219400
      5 C9           1.7020    -1.3310     8.7740 c2         1 D24      -0.226700
      6 C10          2.7990    -0.9250     9.4250 ce         1 D24      -0.189500
      7 C11          2.8570     0.5410     9.4030 ce         1 D24      -0.189500
      8 C12          1.7970     1.0140     8.7350 c2         1 D24      -0.226700
      9 C1          -1.6860    -0.3500     2.4180 ca         1 D24      -0.115500
     10 C2          -0.3880     0.0610     2.7410 ca         1 D24      -0.096750
     11 C3          -0.0400     0.3240     4.0550 ca         1 D24      -0.094000
     12 C4          -0.9670     0.1870     5.0860 ca         1 D24      -0.108800
     13 C5          -2.2530    -0.2340     4.7640 ca         1 D24      -0.094000
     14 C6          -2.6120    -0.4980     3.4520 ca         1 D24      -0.096750
     15 CA          -2.0830    -0.6100     1.0460 cc         1 D24       0.193500
     16 O1          -1.1960    -0.3270     0.0690 os         1 D24      -0.235000
     17 CB          -3.2290    -1.0900     0.4840 cd         1 D24      -0.170500
     18 C23         -3.0200    -1.0920    -0.9190 cd         1 D24      -0.170500
     19 C22         -1.7590    -0.6150    -1.1240 cc         1 D24       0.193500
     20 C16         -0.9720    -0.3750    -2.3200 ca         1 D24      -0.115500
     21 C17          0.3760    -0.0150    -2.2560 ca         1 D24      -0.096750
     22 C18          1.1040     0.2060    -3.4140 ca         1 D24      -0.094000
     23 C19          0.5220     0.0810    -4.6730 ca         1 D24      -0.108800
     24 C20         -0.8250    -0.2750    -4.7330 ca         1 D24      -0.094000
     25 C21         -1.5590    -0.4990    -3.5820 ca         1 D24      -0.096750
     26 C13          1.3170     0.3780    -5.9340 c3         1 D24       0.444000
     27 N3           0.7190    -0.3310    -7.0550 n7         1 D24      -0.864900
     28 N4           2.7310     0.1770    -5.6930 n8         1 D24      -1.018200
     29 C14          1.2750    -0.0070    -8.3580 c5         1 D24       0.219400
     30 C15          0.7040    -0.8630    -9.4520 c2         1 D24      -0.226700
     31 CAX          0.2180    -0.0830   -10.4250 ce         1 D24      -0.189500
     32 CBX          0.3830     1.3230   -10.0410 ce         1 D24      -0.189500
     33 CCX          0.9640     1.3860    -8.8360 c2         1 D24      -0.226700
     34 H7          -1.4590     0.2770     7.1540 h2         1 D24       0.058700
     35 HN2          0.4730    -1.1550     6.6160 hn         1 D24       0.423000
     36 H11A         0.3630     2.2780     6.0960 hn         1 D24       0.404250
     37 H12A        -1.2020     2.4780     6.4810 hn         1 D24       0.404250
     38 H8           0.0030    -0.0870     8.9300 h1         1 D24       0.049200
     39 H9           1.3750    -2.3500     8.6190 ha         1 D24       0.195000
     40 H10          3.5300    -1.5610     9.9050 ha         1 D24       0.191750
     41 H11          3.6420     1.1270     9.8610 ha         1 D24       0.191750
     42 H12          1.5480     2.0460     8.5470 ha         1 D24       0.195000
     43 H3           0.9720     0.6390     4.2780 ha         1 D24       0.127500
     44 H5          -2.9920    -0.3500     5.5480 ha         1 D24       0.127500
     45 H6          -3.6250    -0.8110     3.2360 ha         1 D24       0.120500
     46 HB          -4.1180    -1.4130     1.0020 ha         1 D24       0.141500
     47 H22         -3.7190    -1.4150    -1.6740 ha         1 D24       0.141500
     48 H2           0.8730     0.0930    -1.3020 ha         1 D24       0.120500
     49 H19          2.1480     0.4780    -3.3360 ha         1 D24       0.127500
     50 H20         -1.3100    -0.3780    -5.6940 ha         1 D24       0.127500
     51 H21         -2.6050    -0.7640    -3.6730 ha         1 D24       0.120500
     52 H4           1.1940     1.4460    -6.1450 h2         1 D24       0.058700
     53 H13          0.7950    -1.3310    -6.8990 hn         1 D24       0.423000
     54 H1'1         2.9380    -0.8090    -5.5790 hn         1 D24       0.404250
     55 H1'2         3.2810     0.5110    -6.4730 hn         1 D24       0.404250
     56 H14          2.3760    -0.1280    -8.3980 h1         1 D24       0.049200
     57 H15          0.7270    -1.9440    -9.4330 ha         1 D24       0.195000
     58 H16         -0.2270    -0.4170   -11.3530 ha         1 D24       0.191750
     59 H17          0.0830     2.1640   -10.6510 ha         1 D24       0.191750
     60 H18          1.2240     2.2860    -8.2970 ha         1 D24       0.195000
     61 H23          0.3600     0.1780     1.9680 ha         1 D24       0.120500
@<TRIPOS>BOND
     1     1     2 1   
     2     1     3 1   
     3     1    12 1   
     4     1    34 1   
     5     2     4 1   
     6     2    35 1   
     7     3    36 1   
     8     3    37 1   
     9     4     5 1   
    10     4     8 1   
    11     4    38 1   
    12     5     6 2   
    13     5    39 1   
    14     6     7 1   
    15     6    40 1   
    16     7     8 2   
    17     7    41 1   
    18     8    42 1   
    19     9    10 ar  
    20     9    14 ar  
    21     9    15 1   
    22    10    11 ar  
    23    10    61 1   
    24    11    12 ar  
    25    11    43 1   
    26    12    13 ar  
    27    13    14 ar  
    28    13    44 1   
    29    14    45 1   
    30    15    16 1   
    31    15    17 2   
    32    16    19 1   
    33    17    18 1   
    34    17    46 1   
    35    18    19 2   
    36    18    47 1   
    37    19    20 1   
    38    20    21 ar  
    39    20    25 ar  
    40    21    22 ar  
    41    21    48 1   
    42    22    23 ar  
    43    22    49 1   
    44    23    24 ar  
    45    23    26 1   
    46    24    25 ar  
    47    24    50 1   
    48    25    51 1   
    49    26    27 1   
    50    26    28 1   
    51    26    52 1   
    52    27    29 1   
    53    27    53 1   
    54    28    54 1   
    55    28    55 1   
    56    29    30 1   
    57    29    33 1   
    58    29    56 1   
    59    30    31 2   
    60    30    57 1   
    61    31    32 1   
    62    31    58 1   
    63    32    33 2   
    64    32    59 1   
    65    33    60 1   
@<TRIPOS>SUBSTRUCTURE
     1 D24         1 TEMP              0 ****  ****    0 ROOT
