@<TRIPOS>MOLECULE
D25
   25    27     1     0     0
SMALL
No Charge or Current Charge


@<TRIPOS>ATOM
      1 C1         -32.7370    17.9350    24.3740 cc         1 D25      -0.183000
      2 C2         -32.8720    16.5420    24.2420 cc         1 D25       0.190000
      3 C3         -31.9970    15.6390    24.9460 cc         1 D25       0.156000
      4 C4         -32.0210    14.2820    24.9050 cd         1 D25      -0.215000
      5 C6         -33.6940    18.5120    23.5980 cd         1 D25      -0.180000
      6 O10        -30.9890    16.0540    25.7770 os         1 D25      -0.064700
      7 N11        -30.3320    14.8760    26.2960 nc         1 D25      -0.364300
      8 C12        -30.9780    13.8520    25.7520 cd         1 D25       0.331500
      9 C13        -30.5960    12.4490    26.0400 ca         1 D25      -0.139500
     10 C14        -29.4630    12.1530    26.8360 ca         1 D25      -0.080000
     11 C15        -29.1080    10.8220    27.1140 ca         1 D25      -0.118000
     12 C16        -29.8790     9.7650    26.6070 ca         1 D25      -0.096000
     13 C17        -31.0080    10.0420    25.8210 ca         1 D25      -0.118000
     14 C18        -31.3660    11.3730    25.5400 ca         1 D25      -0.080000
     15 N6         -33.8560    16.1990    23.4290 nd         1 D25      -0.498800
     16 N10        -34.3740    17.4300    23.0230 na         1 D25       0.010800
     17 H1         -31.9980    18.4420    24.9880 ha         1 D25       0.161000
     18 H6         -33.9430    19.5510    23.4090 h4         1 D25       0.159000
     19 H4         -32.7050    13.6710    24.3300 ha         1 D25       0.161000
     20 H10        -35.1630    17.4890    22.3780 hn         1 D25       0.376000
     21 H14        -28.8470    12.9530    27.2430 ha         1 D25       0.123000
     22 H18        -32.2480    11.5540    24.9330 ha         1 D25       0.123000
     23 H15        -28.2330    10.6100    27.7250 ha         1 D25       0.115000
     24 H16        -29.6030     8.7350    26.8230 ha         1 D25       0.113000
     25 H17        -31.6090     9.2250    25.4290 ha         1 D25       0.115000
@<TRIPOS>BOND
     1     1     2 1   
     2     1     5 2   
     3     1    17 1   
     4     2     3 1   
     5     2    15 2   
     6     3     4 2   
     7     3     6 1   
     8     4     8 1   
     9     4    19 1   
    10     5    16 1   
    11     5    18 1   
    12     6     7 1   
    13     7     8 2   
    14     8     9 1   
    15     9    10 ar  
    16     9    14 ar  
    17    10    11 ar  
    18    10    21 1   
    19    11    12 ar  
    20    11    23 1   
    21    12    13 ar  
    22    12    24 1   
    23    13    14 ar  
    24    13    25 1   
    25    14    22 1   
    26    15    16 1   
    27    16    20 1   
@<TRIPOS>SUBSTRUCTURE
     1 D25         1 TEMP              0 ****  ****    0 ROOT
