@<TRIPOS>MOLECULE
D25
   25    27     1     0     0
SMALL
bcc


@<TRIPOS>ATOM
      1 C1         -32.6770    17.9980    24.4290 cc         1 D25      -0.266300
      2 C2         -32.8160    16.6040    24.2850 cc         1 D25       0.255300
      3 C3         -32.0500    15.5520    24.9130 cc         1 D25       0.265700
      4 C4         -32.0910    14.1980    24.8360 cd         1 D25      -0.363600
      5 C6         -33.6560    18.5140    23.6150 cd         1 D25      -0.147300
      6 O10        -31.0850    15.9180    25.7590 os         1 D25      -0.109100
      7 N11        -30.4680    14.8160    26.2590 nc         1 D25      -0.364300
      8 C12        -31.0570    13.7840    25.7160 cd         1 D25       0.396800
      9 C13        -30.6340    12.4160    26.0320 ca         1 D25      -0.139500
     10 C14        -29.4890    12.1800    26.7950 ca         1 D25      -0.098000
     11 C15        -29.0990    10.8830    27.0890 ca         1 D25      -0.136000
     12 C16        -29.8440     9.8060    26.6250 ca         1 D25      -0.114000
     13 C17        -30.9830    10.0330    25.8660 ca         1 D25      -0.136000
     14 C18        -31.3760    11.3300    25.5700 ca         1 D25      -0.098000
     15 N6         -33.8010    16.2980    23.4510 nd         1 D25      -0.498800
     16 N10        -34.2850    17.4620    23.0650 na         1 D25       0.010400
     17 H1         -31.9720    18.5440    25.0310 ha         1 D25       0.179000
     18 H6         -33.9420    19.5290    23.3950 h4         1 D25       0.177000
     19 H4         -32.7500    13.5930    24.2380 ha         1 D25       0.179000
     20 H10        -35.0600    17.4900    22.4210 hn         1 D25       0.325700
     21 H14        -28.8980    13.0110    27.1560 ha         1 D25       0.141000
     22 H18        -32.2680    11.4900    24.9770 ha         1 D25       0.141000
     23 H15        -28.2080    10.7140    27.6790 ha         1 D25       0.133000
     24 H16        -29.5350     8.7940    26.8540 ha         1 D25       0.131000
     25 H17        -31.5710     9.2000    25.5030 ha         1 D25       0.133000
@<TRIPOS>BOND
     1     1     2 1   
     2     1     5 2   
     3     1    17 1   
     4     2     3 1   
     5     2    15 2   
     6     3     4 2   
     7     3     6 1   
     8     4     8 1   
     9     4    19 1   
    10     5    16 1   
    11     5    18 1   
    12     6     7 1   
    13     7     8 2   
    14     8     9 1   
    15     9    10 ar  
    16     9    14 ar  
    17    10    11 ar  
    18    10    21 1   
    19    11    12 ar  
    20    11    23 1   
    21    12    13 ar  
    22    12    24 1   
    23    13    14 ar  
    24    13    25 1   
    25    14    22 1   
    26    15    16 1   
    27    16    20 1   
@<TRIPOS>SUBSTRUCTURE
     1 D25         1 TEMP              0 ****  ****    0 ROOT
