@<TRIPOS>MOLECULE
D26
   25    27     1     0     0
SMALL
abcg2


@<TRIPOS>ATOM
      1 C1          11.8420     5.1330    21.5590 cc         1 D26      -0.205000
      2 C2          13.0550     4.5720    22.0090 cc         1 D26       0.330500
      3 C3          13.6740     4.7020    23.3090 cc         1 D26      -0.270500
      4 C6          11.7310     4.6960    20.2610 cd         1 D26      -0.173000
      5 N11         14.0350     5.3040    25.5070 nd         1 D26      -0.646000
      6 C12         15.1150     4.6220    25.2710 cc         1 D26       0.477900
      7 C13         16.1680     4.3890    26.2580 ca         1 D26      -0.133500
      8 C14         15.9410     4.7270    27.5940 ca         1 D26      -0.082000
      9 C15         16.9240     4.5130    28.5460 ca         1 D26      -0.116000
     10 C16         18.1470     3.9620    28.1820 ca         1 D26      -0.098000
     11 C17         18.3810     3.6270    26.8550 ca         1 D26      -0.116000
     12 C18         17.4000     3.8410    25.8980 ca         1 D26      -0.082000
     13 N6          13.6320     3.8530    21.0570 nd         1 D26      -0.522800
     14 S3          15.1970     3.9820    23.6610 ss         1 D26       0.026600
     15 C4          13.2250     5.3560    24.4200 cd         1 D26       0.288900
     16 N10         12.8170     3.9440    20.0190 na         1 D26       0.006800
     17 H1          11.1550     5.7610    22.0990 ha         1 D26       0.150000
     18 H6          10.9760     4.8650    19.5120 h4         1 D26       0.156000
     19 H4          12.2900     5.8960    24.4750 h4         1 D26       0.041100
     20 H10         13.0440     3.4640    19.1620 hn         1 D26       0.374000
     21 H14         14.9900     5.1510    27.8860 ha         1 D26       0.125500
     22 H18         17.6120     3.5850    24.8670 ha         1 D26       0.125500
     23 H15         16.7330     4.7740    29.5790 ha         1 D26       0.115000
     24 H16         18.9120     3.7940    28.9280 ha         1 D26       0.114000
     25 H17         19.3300     3.2020    26.5580 ha         1 D26       0.115000
@<TRIPOS>BOND
     1     1     2 1   
     2     1     4 2   
     3     1    17 1   
     4     2     3 1   
     5     2    13 2   
     6     3    14 1   
     7     3    15 2   
     8     4    16 1   
     9     4    18 1   
    10     5     6 2   
    11     5    15 1   
    12     6     7 1   
    13     6    14 1   
    14     7     8 ar  
    15     7    12 ar  
    16     8     9 ar  
    17     8    21 1   
    18     9    10 ar  
    19     9    23 1   
    20    10    11 ar  
    21    10    24 1   
    22    11    12 ar  
    23    11    25 1   
    24    12    22 1   
    25    13    16 1   
    26    15    19 1   
    27    16    20 1   
@<TRIPOS>SUBSTRUCTURE
     1 D26         1 TEMP              0 ****  ****    0 ROOT
