@<TRIPOS>MOLECULE
D26
   25    27     1     0     0
SMALL
No Charge or Current Charge


@<TRIPOS>ATOM
      1 C1          11.8870     5.0310    21.6510 cc         1 D26      -0.205000
      2 C2          13.1680     4.5140    21.9160 cc         1 D26       0.330500
      3 C3          13.7880     4.5970    23.2060 cc         1 D26      -0.270500
      4 C6          11.6100     4.7830    20.3420 cd         1 D26      -0.173000
      5 N11         13.9800     5.1530    25.4530 nd         1 D26      -0.646000
      6 C12         15.1420     4.5470    25.2120 cc         1 D26       0.477900
      7 C13         16.1750     4.3670    26.2530 ca         1 D26      -0.133500
      8 C14         15.9600     4.8450    27.5690 ca         1 D26      -0.082000
      9 C15         16.9370     4.6790    28.5650 ca         1 D26      -0.116000
     10 C16         18.1460     4.0340    28.2670 ca         1 D26      -0.098000
     11 C17         18.3760     3.5540    26.9690 ca         1 D26      -0.116000
     12 C18         17.4020     3.7180    25.9690 ca         1 D26      -0.082000
     13 N6          13.7190     3.9550    20.8560 nd         1 D26      -0.522800
     14 S3          15.3680     3.9710    23.5730 ss         1 D26       0.026600
     15 C4          13.2020     5.1840    24.3040 cd         1 D26       0.288900
     16 N10         12.7470     4.1200    19.8670 na         1 D26       0.006800
     17 H1          11.2410     5.5340    22.3610 ha         1 D26       0.150000
     18 H6          10.7420     5.0090    19.7300 h4         1 D26       0.156000
     19 H4          12.2250     5.6480    24.3450 h4         1 D26       0.041100
     20 H10         12.8930     3.7800    18.9160 hn         1 D26       0.374000
     21 H14         15.0310     5.3490    27.8290 ha         1 D26       0.125500
     22 H18         17.6180     3.3330    24.9750 ha         1 D26       0.125500
     23 H15         16.7550     5.0510    29.5710 ha         1 D26       0.115000
     24 H16         18.9020     3.9050    29.0390 ha         1 D26       0.114000
     25 H17         19.3140     3.0540    26.7350 ha         1 D26       0.115000
@<TRIPOS>BOND
     1     1     2 1   
     2     1     4 2   
     3     1    17 1   
     4     2     3 1   
     5     2    13 2   
     6     3    14 1   
     7     3    15 2   
     8     4    16 1   
     9     4    18 1   
    10     5     6 2   
    11     5    15 1   
    12     6     7 1   
    13     6    14 1   
    14     7     8 ar  
    15     7    12 ar  
    16     8     9 ar  
    17     8    21 1   
    18     9    10 ar  
    19     9    23 1   
    20    10    11 ar  
    21    10    24 1   
    22    11    12 ar  
    23    11    25 1   
    24    12    22 1   
    25    13    16 1   
    26    15    19 1   
    27    16    20 1   
@<TRIPOS>SUBSTRUCTURE
     1 D26         1 TEMP              0 ****  ****    0 ROOT
