@<TRIPOS>MOLECULE
D27
   40    41     1     0     0
SMALL
bcc


@<TRIPOS>ATOM
      1 C1         127.5200    16.8520    -4.1340 ca         1 D27      -0.201600
      2 C2         128.5400    15.8760    -4.2280 ca         1 D27       0.098600
      3 C3         126.4570    16.8610    -3.0390 c          1 D27       0.934200
      4 N4         128.5560    14.8870    -3.2470 ns         1 D27      -0.493100
      5 C5         129.3970    13.8440    -3.0800 c          1 D27       0.670300
      6 C6         129.1670    13.0380    -1.8550 ce         1 D27      -0.210200
      7 C7         127.8250    12.7500     2.8600 ca         1 D27       0.104100
      8 C8         128.5760    13.4720    -0.7360 cf         1 D27      -0.078200
      9 C9         127.9670    11.3470     2.9170 ca         1 D27       0.100100
     10 C10        128.0210    13.4010     1.6580 ca         1 D27      -0.168000
     11 O11        126.4890    15.9130    -2.1920 o          1 D27      -0.811800
     12 O12        130.3010    13.5240    -3.8410 o          1 D27      -0.648100
     13 C13        128.3760    12.7050     0.4920 ca         1 D27      -0.039800
     14 C14        128.3060    10.6570     1.7630 ca         1 D27      -0.196000
     15 O15        125.6340    17.7750    -3.0410 o          1 D27      -0.811800
     16 C16        128.5090    11.3270     0.5630 ca         1 D27      -0.116000
     17 C18        127.4770    17.8610    -5.0910 ca         1 D27      -0.082000
     18 C20        129.4700    15.9450    -5.2690 ca         1 D27      -0.195000
     19 C21        127.3720    14.7470     4.0350 c3         1 D27       0.121700
     20 C22        127.8490     9.3920     4.2350 c3         1 D27       0.127700
     21 C23        128.3990    17.9280    -6.1220 ca         1 D27      -0.195000
     22 C24        129.3930    16.9650    -6.2020 ca         1 D27      -0.122000
     23 H18        126.6950    18.6030    -5.0100 ha         1 D27       0.144000
     24 H4         127.7450    15.0330    -2.6070 hn         1 D27       0.402500
     25 H20        130.2490    15.2050    -5.3510 ha         1 D27       0.148000
     26 H6         129.6000    12.0450    -1.9000 ha         1 D27       0.127000
     27 H8         128.2160    14.4950    -0.6900 ha         1 D27       0.161000
     28 H10        127.9090    14.4760     1.5970 ha         1 D27       0.150000
     29 H14        128.4100     9.5810     1.7790 ha         1 D27       0.127000
     30 H16        128.7540    10.7500    -0.3190 ha         1 D27       0.134000
     31 H211       127.1360    15.0220     5.0600 h1         1 D27       0.039033
     32 H212       128.3010    15.2470     3.7440 h1         1 D27       0.039033
     33 H213       126.5660    15.0990     3.3850 h1         1 D27       0.039033
     34 H23        128.3420    18.7230    -6.8540 ha         1 D27       0.106000
     35 H221       128.8550     9.0270     4.0050 h1         1 D27       0.032700
     36 H222       127.6240     9.1530     5.2710 h1         1 D27       0.032700
     37 H223       127.1330     8.8700     3.5930 h1         1 D27       0.032700
     38 H24        130.1220    17.0000    -7.0010 ha         1 D27       0.103000
     39 O17        127.4980    13.3460     4.0180 os         1 D27      -0.306900
     40 O19        127.7490    10.7890     4.1170 os         1 D27      -0.300900
@<TRIPOS>BOND
     1     1     2 ar  
     2     1     3 1   
     3     1    17 ar  
     4     2     4 1   
     5     2    18 ar  
     6     3    11 1   
     7     3    15 1   
     8     4     5 1   
     9     4    24 1   
    10     5     6 1   
    11     5    12 2   
    12     6     8 2   
    13     6    26 1   
    14     7     9 ar  
    15     7    10 ar  
    16     7    39 1   
    17     8    13 1   
    18     8    27 1   
    19     9    14 ar  
    20     9    40 1   
    21    10    13 ar  
    22    10    28 1   
    23    13    16 ar  
    24    14    16 ar  
    25    14    29 1   
    26    16    30 1   
    27    17    21 ar  
    28    17    23 1   
    29    18    22 ar  
    30    18    25 1   
    31    19    31 1   
    32    19    32 1   
    33    19    33 1   
    34    19    39 1   
    35    20    35 1   
    36    20    36 1   
    37    20    37 1   
    38    20    40 1   
    39    21    22 ar  
    40    21    34 1   
    41    22    38 1   
@<TRIPOS>SUBSTRUCTURE
     1 D27         1 TEMP              0 ****  ****    0 ROOT
