@<TRIPOS>MOLECULE
D27
   40    41     1     0     0
SMALL
No Charge or Current Charge


@<TRIPOS>ATOM
      1 C1         127.8130    17.1280    -4.0030 ca         1 D27      -0.201600
      2 C2         128.5780    15.9530    -4.2520 ca         1 D27       0.006000
      3 C3         126.9920    17.3120    -2.7380 c          1 D27       0.723600
      4 N4         128.5850    14.9140    -3.2810 ns         1 D27      -0.167000
      5 C5         129.0010    13.5920    -3.3110 c          1 D27       0.603300
      6 C6         128.8820    12.8480    -2.0190 ce         1 D27      -0.260200
      7 C7         127.6590    12.6700     2.8480 ca         1 D27       0.104100
      8 C8         128.4270    13.3240    -0.8160 cf         1 D27      -0.128200
      9 C9         128.0260    11.3110     2.9810 ca         1 D27       0.100100
     10 C10        127.7980    13.3130     1.5950 ca         1 D27      -0.150000
     11 O11        127.3920    16.8120    -1.6960 o          1 D27      -0.706500
     12 O12        129.4310    13.0300    -4.3120 o          1 D27      -0.648100
     13 C13        128.2970    12.6160     0.4760 ca         1 D27      -0.039800
     14 C14        128.5270    10.6130     1.8600 ca         1 D27      -0.178000
     15 O15        125.9670    17.9740    -2.8090 o          1 D27      -0.706500
     16 C16        128.6590    11.2620     0.6210 ca         1 D27      -0.098000
     17 C18        127.8020    18.1580    -4.9730 ca         1 D27      -0.064000
     18 C20        129.3250    15.8570    -5.4490 ca         1 D27      -0.177000
     19 C21        126.7710    14.7180     3.9250 c3         1 D27       0.144900
     20 C22        128.2310     9.3230     4.4430 c3         1 D27       0.150900
     21 C23        128.5410    18.0400    -6.1590 ca         1 D27      -0.177000
     22 C24        129.3050    16.8920    -6.3960 ca         1 D27      -0.104000
     23 H18        127.2200    19.0630    -4.8020 ha         1 D27       0.126000
     24 H4         128.2190    15.2140    -2.3860 hn         1 D27       0.236000
     25 H20        129.9390    14.9870    -5.6590 ha         1 D27       0.130000
     26 H6         129.2070    11.8140    -2.0920 ha         1 D27       0.177000
     27 H8         128.1060    14.3660    -0.7600 ha         1 D27       0.211000
     28 H10        127.5200    14.3560     1.4780 ha         1 D27       0.132000
     29 H14        128.8170     9.5680     1.9280 ha         1 D27       0.109000
     30 H16        129.0470    10.6970    -0.2210 ha         1 D27       0.116000
     31 H211       126.4180    15.0370     4.9130 h1         1 D27       0.039033
     32 H212       127.6150    15.3610     3.6430 h1         1 D27       0.039033
     33 H213       125.9550    14.8700     3.2070 h1         1 D27       0.039033
     34 H23        128.5250    18.8430    -6.8920 ha         1 D27       0.088000
     35 H221       129.2950     9.1510     4.2370 h1         1 D27       0.032700
     36 H222       128.0380     9.0490     5.4880 h1         1 D27       0.032700
     37 H223       127.6350     8.6600     3.8020 h1         1 D27       0.032700
     38 H24        129.8840    16.8030    -7.3120 ha         1 D27       0.085000
     39 O17        127.1710    13.3360     3.9610 os         1 D27      -0.330100
     40 O19        127.8830    10.7000     4.2170 os         1 D27      -0.324100
@<TRIPOS>BOND
     1     1     2 ar  
     2     1     3 1   
     3     1    17 ar  
     4     2     4 1   
     5     2    18 ar  
     6     3    11 1   
     7     3    15 1   
     8     4     5 1   
     9     4    24 1   
    10     5     6 1   
    11     5    12 2   
    12     6     8 2   
    13     6    26 1   
    14     7     9 ar  
    15     7    10 ar  
    16     7    39 1   
    17     8    13 1   
    18     8    27 1   
    19     9    14 ar  
    20     9    40 1   
    21    10    13 ar  
    22    10    28 1   
    23    13    16 ar  
    24    14    16 ar  
    25    14    29 1   
    26    16    30 1   
    27    17    21 ar  
    28    17    23 1   
    29    18    22 ar  
    30    18    25 1   
    31    19    31 1   
    32    19    32 1   
    33    19    33 1   
    34    19    39 1   
    35    20    35 1   
    36    20    36 1   
    37    20    37 1   
    38    20    40 1   
    39    21    22 ar  
    40    21    34 1   
    41    22    38 1   
@<TRIPOS>SUBSTRUCTURE
     1 D27         1 TEMP              0 ****  ****    0 ROOT
