@<TRIPOS>MOLECULE
D28
   36    38     1     0     0
SMALL
abcg2


@<TRIPOS>ATOM
      1 C1          14.9670     4.5950    -1.7990 cc         1 D28       0.379500
      2 C2          16.0310     4.3200    -0.8260 ca         1 D28      -0.114500
      3 N3          15.0420     4.0240    -3.0430 nc         1 D28      -0.765000
      4 C4          13.8630     5.3550    -1.5780 cd         1 D28      -0.311000
      5 C5          16.1020     5.0190     0.3820 ca         1 D28      -0.079000
      6 C6          16.9930     3.3470    -1.0890 ca         1 D28      -0.055000
      7 C7          14.0240     4.3480    -3.7800 cd         1 D28       0.731300
      8 S8          12.8740     5.3970    -2.9920 ss         1 D28      -0.042400
      9 C9          17.0820     4.7660     1.3320 ca         1 D28      -0.125300
     10 C10         17.9850     3.0720    -0.1600 ca         1 D28      -0.160000
     11 N11         13.9050     3.9510    -5.0690 nu         1 D28      -0.923900
     12 C12         18.0100     3.7790     1.0240 ca         1 D28       0.159000
     13 C13         17.1550     5.5240     2.6230 c3         1 D28      -0.035800
     14 C14         12.8600     4.2420    -5.9550 ca         1 D28       0.307000
     15 F15         18.9740     3.5090     1.9200 f          1 D28      -0.190000
     16 C16         13.1860     4.5480    -7.2700 ca         1 D28      -0.253000
     17 C17         11.5260     4.2060    -5.5460 ca         1 D28      -0.236000
     18 C18         12.1830     4.8440    -8.1940 ca         1 D28       0.242100
     19 C19         10.5390     4.5170    -6.4680 ca         1 D28      -0.012000
     20 C20         10.8320     4.8400    -7.7840 ca         1 D28      -0.282600
     21 O21         12.5070     5.1420    -9.4430 oh         1 D28      -0.633100
     22 C22          9.7420     5.1580    -8.7740 c          1 D28       0.727600
     23 O23         10.1460     5.4380    -9.9490 o          1 D28      -0.689000
     24 O24          8.5700     5.1770    -8.3990 o          1 D28      -0.689000
     25 H4          13.5530     5.8680    -0.6820 h4         1 D28       0.149000
     26 H5          15.3750     5.7930     0.5970 ha         1 D28       0.114000
     27 H6          16.9650     2.7950    -2.0180 ha         1 D28       0.142000
     28 H10         18.7320     2.3130    -0.3540 ha         1 D28       0.126000
     29 H11         14.7680     3.6190    -5.4760 hn         1 D28       0.500000
     30 H131        17.1160     4.8600     3.4860 hc         1 D28       0.041367
     31 H132        18.0800     6.0980     2.6980 hc         1 D28       0.041367
     32 H133        16.3250     6.2240     2.7040 hc         1 D28       0.041367
     33 H16         14.2230     4.5720    -7.5870 ha         1 D28       0.109000
     34 H17         11.2480     3.8840    -4.5520 ha         1 D28       0.106000
     35 H19          9.5020     4.4840    -6.1610 ha         1 D28       0.125000
     36 H21         11.5850     5.3480    -9.8820 ho         1 D28       0.556000
@<TRIPOS>BOND
     1     1     2 1   
     2     1     3 1   
     3     1     4 2   
     4     2     5 ar  
     5     2     6 ar  
     6     3     7 2   
     7     4     8 1   
     8     4    25 1   
     9     5     9 ar  
    10     5    26 1   
    11     6    10 ar  
    12     6    27 1   
    13     7     8 1   
    14     7    11 1   
    15     9    12 ar  
    16     9    13 1   
    17    10    12 ar  
    18    10    28 1   
    19    11    14 1   
    20    11    29 1   
    21    12    15 1   
    22    13    30 1   
    23    13    31 1   
    24    13    32 1   
    25    14    16 ar  
    26    14    17 ar  
    27    16    18 ar  
    28    16    33 1   
    29    17    19 ar  
    30    17    34 1   
    31    18    20 ar  
    32    18    21 1   
    33    19    20 ar  
    34    19    35 1   
    35    20    22 1   
    36    21    36 1   
    37    22    23 1   
    38    22    24 1   
@<TRIPOS>SUBSTRUCTURE
     1 D28         1 TEMP              0 ****  ****    0 ROOT
