@<TRIPOS>MOLECULE
D28
   36    38     1     0     0
SMALL
No Charge or Current Charge


@<TRIPOS>ATOM
      1 C1          14.8490     4.5360    -1.6830 cc         1 D28       0.379500
      2 C2          15.9590     4.2530    -0.7590 ca         1 D28      -0.114500
      3 N3          14.9040     4.2250    -3.0180 nc         1 D28      -0.765000
      4 C4          13.6860     5.1000    -1.2130 cd         1 D28      -0.311000
      5 C5          16.1280     4.9890     0.4390 ca         1 D28      -0.079000
      6 C6          16.9290     3.2820    -1.0970 ca         1 D28      -0.055000
      7 C7          13.7630     4.5550    -3.5670 cd         1 D28       0.731300
      8 S8          12.5480     5.3110    -2.5330 ss         1 D28      -0.042400
      9 C9          17.2150     4.7350     1.3000 ca         1 D28      -0.125300
     10 C10         18.0130     3.0240    -0.2420 ca         1 D28      -0.160000
     11 N11         13.7210     4.3730    -4.9010 nu         1 D28      -0.923900
     12 C12         18.1530     3.7440     0.9520 ca         1 D28       0.159000
     13 C13         17.3750     5.5330     2.5900 c3         1 D28      -0.035800
     14 C14         12.7540     4.5170    -5.8840 ca         1 D28       0.307000
     15 F15         19.2040     3.4840     1.7610 f          1 D28      -0.190000
     16 C16         13.1770     4.6290    -7.2110 ca         1 D28      -0.253000
     17 C17         11.3820     4.5200    -5.5990 ca         1 D28      -0.236000
     18 C18         12.2430     4.7690    -8.2440 ca         1 D28       0.242100
     19 C19         10.4390     4.6590    -6.6310 ca         1 D28      -0.012000
     20 C20         10.8590     4.7900    -7.9740 ca         1 D28      -0.282600
     21 O21         12.6970     4.8840    -9.5170 oh         1 D28      -0.633100
     22 C22          9.8350     4.9400    -9.0770 c          1 D28       0.727600
     23 O23         10.2430     5.0440   -10.2270 o          1 D28      -0.689000
     24 O24          8.6520     4.9520    -8.7790 o          1 D28      -0.689000
     25 H4          13.4250     5.3900    -0.2040 h4         1 D28       0.149000
     26 H5          15.4220     5.7710     0.7030 ha         1 D28       0.114000
     27 H6          16.8380     2.7150    -2.0220 ha         1 D28       0.142000
     28 H10         18.7480     2.2680    -0.5070 ha         1 D28       0.126000
     29 H11         14.6480     4.1300    -5.2280 hn         1 D28       0.500000
     30 H131        17.3820     4.8690     3.4630 hc         1 D28       0.041367
     31 H132        18.3170     6.0940     2.5880 hc         1 D28       0.041367
     32 H133        16.5610     6.2540     2.7290 hc         1 D28       0.041367
     33 H16         14.2360     4.6160    -7.4480 ha         1 D28       0.109000
     34 H17         11.0230     4.3930    -4.5840 ha         1 D28       0.106000
     35 H19          9.3800     4.6570    -6.3790 ha         1 D28       0.125000
     36 H21         11.8620     4.9690   -10.0620 ho         1 D28       0.556000
@<TRIPOS>BOND
     1     1     2 1   
     2     1     3 1   
     3     1     4 2   
     4     2     5 ar  
     5     2     6 ar  
     6     3     7 2   
     7     4     8 1   
     8     4    25 1   
     9     5     9 ar  
    10     5    26 1   
    11     6    10 ar  
    12     6    27 1   
    13     7     8 1   
    14     7    11 1   
    15     9    12 ar  
    16     9    13 1   
    17    10    12 ar  
    18    10    28 1   
    19    11    14 1   
    20    11    29 1   
    21    12    15 1   
    22    13    30 1   
    23    13    31 1   
    24    13    32 1   
    25    14    16 ar  
    26    14    17 ar  
    27    16    18 ar  
    28    16    33 1   
    29    17    19 ar  
    30    17    34 1   
    31    18    20 ar  
    32    18    21 1   
    33    19    20 ar  
    34    19    35 1   
    35    20    22 1   
    36    21    36 1   
    37    22    23 1   
    38    22    24 1   
@<TRIPOS>SUBSTRUCTURE
     1 D28         1 TEMP              0 ****  ****    0 ROOT
