@<TRIPOS>MOLECULE
D29
   34    34     1     0     0
SMALL
No Charge or Current Charge


@<TRIPOS>ATOM
      1 F6          -1.8660    -3.3830    -0.9720 f          1 D29      -0.109000
      2 C7          -2.8670    -2.4950    -0.7730 c3         1 D29       0.360300
      3 F4          -3.4170    -2.2590    -1.9860 f          1 D29      -0.109000
      4 F5          -3.8060    -3.1190    -0.0290 f          1 D29      -0.109000
      5 C6          -2.3780    -1.2150    -0.0890 ca         1 D29      -0.217300
      6 C1          -2.9440     0.0350    -0.4100 ca         1 D29       0.012000
      7 C5          -1.3460    -1.2750     0.8710 ca         1 D29       0.028000
      8 C4          -0.9460    -0.1330     1.5910 ca         1 D29      -0.081500
      9 C3          -1.3920     1.1170     1.1170 ca         1 D29       0.028000
     10 C2          -2.4250     1.2140     0.1620 ca         1 D29      -0.217300
     11 C8          -2.9640     2.5880    -0.2460 c3         1 D29       0.360300
     12 F3          -3.8960     3.0270     0.6290 f          1 D29      -0.109000
     13 F2          -1.9900     3.5260    -0.2890 f          1 D29      -0.109000
     14 F1          -3.5430     2.5800    -1.4680 f          1 D29      -0.109000
     15 S1           0.6680    -0.2080     2.4540 sx         1 D29       0.298800
     16 O            0.8400     1.0690     3.2560 o          1 D29      -0.499000
     17 C9           1.6590    -0.0170     0.9420 ce         1 D29      -0.216300
     18 C10          2.5750    -0.9540     0.6150 c2         1 D29      -0.105200
     19 C11          3.4610    -0.9150    -0.6120 c3         1 D29      -0.053200
     20 C12          4.6920    -0.0090    -0.4140 c3         1 D29       0.105800
     21 N            5.5100     0.0080    -1.6410 n2         1 D29      -0.565900
     22 C13          6.6870    -0.5110    -1.7570 c2         1 D29       0.486100
     23 S2           7.5060    -1.3930    -0.4320 sh         1 D29      -0.405000
     24 H1          -3.7540     0.0940    -1.1360 ha         1 D29       0.147000
     25 H2          -0.8670    -2.2270     1.0940 ha         1 D29       0.150500
     26 H3          -0.9520     2.0220     1.5310 ha         1 D29       0.150500
     27 H5           1.4480     0.8850     0.3610 h4         1 D29       0.214000
     28 H6           2.7260    -1.8270     1.2520 ha         1 D29       0.167000
     29 H7           3.7990    -1.9300    -0.8580 hc         1 D29       0.068200
     30 H8           2.8860    -0.5600    -1.4770 hc         1 D29       0.068200
     31 H9           4.3470     1.0080    -0.1810 h1         1 D29       0.059200
     32 H10          5.2470    -0.3600     0.4640 h1         1 D29       0.059200
     33 H11          7.2300    -0.4440    -2.7020 h5         1 D29       0.029800
     34 H12          8.6220    -1.6770    -1.1430 hs         1 D29       0.222800
@<TRIPOS>BOND
     1     1     2 1   
     2     2     3 1   
     3     2     4 1   
     4     2     5 1   
     5     5     6 ar  
     6     5     7 ar  
     7     6    10 ar  
     8     6    24 1   
     9     7     8 ar  
    10     7    25 1   
    11     8     9 ar  
    12     8    15 1   
    13     9    10 ar  
    14     9    26 1   
    15    10    11 1   
    16    11    12 1   
    17    11    13 1   
    18    11    14 1   
    19    15    16 2   
    20    15    17 1   
    21    17    18 2   
    22    17    27 1   
    23    18    19 1   
    24    18    28 1   
    25    19    20 1   
    26    19    29 1   
    27    19    30 1   
    28    20    21 1   
    29    20    31 1   
    30    20    32 1   
    31    21    22 2   
    32    22    23 1   
    33    22    33 1   
    34    23    34 1   
@<TRIPOS>SUBSTRUCTURE
     1 D29         1 TEMP              0 ****  ****    0 ROOT
