@<TRIPOS>MOLECULE
D29
   34    34     1     0     0
SMALL
bcc


@<TRIPOS>ATOM
      1 F6          -1.8390    -3.2600    -0.8370 f          1 D29      -0.230300
      2 C7          -2.7950    -2.3310    -0.8430 c3         1 D29       0.724200
      3 F4          -3.1480    -2.1310    -2.1190 f          1 D29      -0.230300
      4 F5          -3.8620    -2.8560    -0.2270 f          1 D29      -0.230300
      5 C6          -2.3600    -1.0540    -0.1890 ca         1 D29      -0.217300
      6 C1          -3.2330     0.0300    -0.2150 ca         1 D29      -0.006000
      7 C5          -1.1310    -0.9550     0.4370 ca         1 D29       0.010000
      8 C4          -0.7800     0.2500     1.0310 ca         1 D29      -0.081500
      9 C3          -1.6310     1.3350     1.0300 ca         1 D29       0.010000
     10 C2          -2.8630     1.2160     0.3930 ca         1 D29      -0.217300
     11 C8          -3.8040     2.3830     0.4210 c3         1 D29       0.724200
     12 F3          -4.4360     2.4680     1.6000 f          1 D29      -0.230300
     13 F2          -3.1580     3.5410     0.2450 f          1 D29      -0.230300
     14 F1          -4.7440     2.3040    -0.5220 f          1 D29      -0.230300
     15 S1           0.7960     0.3730     1.8930 sx         1 D29       0.272000
     16 O            0.8550     1.7670     2.4570 o          1 D29      -0.472200
     17 C9           1.8210     0.3260     0.4510 ce         1 D29      -0.166300
     18 C10          2.6620    -0.6920     0.2980 c2         1 D29      -0.055200
     19 C11          3.5660    -0.8590    -0.8770 c3         1 D29      -0.053200
     20 C12          5.0300    -0.8910    -0.4540 c3         1 D29       0.105800
     21 N            5.8800    -1.1410    -1.5950 n2         1 D29      -0.565900
     22 C13          7.1280    -1.1250    -1.4470 c2         1 D29       0.486100
     23 S2           7.9690    -0.8170     0.0770 sh         1 D29      -0.405000
     24 H1          -4.1910    -0.0590    -0.7110 ha         1 D29       0.165000
     25 H2          -0.4460    -1.7930     0.4580 ha         1 D29       0.168500
     26 H3          -1.3340     2.2570     1.5140 ha         1 D29       0.168500
     27 H5           1.7110     1.1450    -0.2520 h4         1 D29       0.164000
     28 H6           2.7110    -1.4690     1.0550 ha         1 D29       0.117000
     29 H7           3.3160    -1.8080    -1.3570 hc         1 D29       0.068200
     30 H8           3.4050    -0.0650    -1.6070 hc         1 D29       0.068200
     31 H9           5.2920     0.0620     0.0230 h1         1 D29       0.059200
     32 H10          5.1780    -1.6660     0.3080 h1         1 D29       0.059200
     33 H11          7.7770    -1.3150    -2.2970 h5         1 D29       0.029800
     34 H12          9.2060    -0.9080    -0.4180 hs         1 D29       0.222800
@<TRIPOS>BOND
     1     1     2 1   
     2     2     3 1   
     3     2     4 1   
     4     2     5 1   
     5     5     6 ar  
     6     5     7 ar  
     7     6    10 ar  
     8     6    24 1   
     9     7     8 ar  
    10     7    25 1   
    11     8     9 ar  
    12     8    15 1   
    13     9    10 ar  
    14     9    26 1   
    15    10    11 1   
    16    11    12 1   
    17    11    13 1   
    18    11    14 1   
    19    15    16 2   
    20    15    17 1   
    21    17    18 2   
    22    17    27 1   
    23    18    19 1   
    24    18    28 1   
    25    19    20 1   
    26    19    29 1   
    27    19    30 1   
    28    20    21 1   
    29    20    31 1   
    30    20    32 1   
    31    21    22 2   
    32    22    23 1   
    33    22    33 1   
    34    23    34 1   
@<TRIPOS>SUBSTRUCTURE
     1 D29         1 TEMP              0 ****  ****    0 ROOT
