@<TRIPOS>MOLECULE
D2A
   45    48     1     0     0
SMALL
No Charge or Current Charge


@<TRIPOS>ATOM
      1 C1          -6.0890    -0.9020    -0.6290 ca         1 D2A      -0.079000
      2 C2          -4.6860    -0.9820    -0.6390 ca         1 D2A      -0.107500
      3 C3          -3.8870    -0.0180     0.0220 cp         1 D2A      -0.026000
      4 C4          -4.5550     1.0270     0.7050 ca         1 D2A      -0.107500
      5 C5          -5.9580     1.1100     0.7200 ca         1 D2A      -0.079000
      6 C6          -6.7490     0.1580     0.0370 ca         1 D2A      -0.139900
      7 C7          -2.3910    -0.1060     0.0090 cp         1 D2A      -0.020000
      8 C8          -1.7280    -1.3560     0.0260 ca         1 D2A      -0.103000
      9 C9          -0.3250    -1.4380     0.0140 ca         1 D2A      -0.082500
     10 C10          0.4680    -0.2710    -0.0160 ca         1 D2A      -0.112900
     11 C11         -0.1850     0.9820    -0.0340 ca         1 D2A      -0.082500
     12 C12         -1.5890     1.0600    -0.0210 ca         1 D2A      -0.103000
     13 C13          1.9380    -0.3680    -0.0290 cc         1 D2A       0.477400
     14 N14          2.6400    -1.5220    -0.0160 nd         1 D2A      -0.578100
     15 C15          3.9690    -1.1100    -0.0360 ca         1 D2A       0.086400
     16 C16          4.0690     0.2470    -0.0600 ca         1 D2A      -0.092200
     17 N17          2.7960     0.7310    -0.0570 na         1 D2A      -0.303600
     18 C18          5.2940     0.9240    -0.0870 ca         1 D2A      -0.060000
     19 C19          5.1200    -1.9070    -0.0410 ca         1 D2A      -0.060000
     20 C20          6.3810    -1.2690    -0.0660 ca         1 D2A      -0.118000
     21 C21          6.4870     0.1550    -0.0730 ca         1 D2A      -0.134900
     22 C22          7.8220     0.8430    -0.1300 ce         1 D2A       0.661800
     23 N23          8.9130     0.1570     0.2730 nv         1 D2A      -1.074200
     24 N24          7.9650     2.0630    -0.4500 n2         1 D2A      -0.832100
     25 C25         -8.2470     0.2400     0.0870 ce         1 D2A       0.658800
     26 N26         -8.9540    -0.3730    -0.8880 nv         1 D2A      -1.075200
     27 N27         -8.8800     0.9340     0.9410 n2         1 D2A      -0.825100
     28 H1          -6.6580    -1.6780    -1.1360 ha         1 D2A       0.128500
     29 H2          -4.2140    -1.8010    -1.1770 ha         1 D2A       0.118000
     30 H4          -3.9810     1.7750     1.2450 ha         1 D2A       0.118000
     31 H5          -6.4310     1.9260     1.2630 ha         1 D2A       0.128500
     32 H8          -2.3060    -2.2760     0.0630 ha         1 D2A       0.119500
     33 H9           0.1430    -2.4210     0.0310 ha         1 D2A       0.124000
     34 H11          0.3840     1.9080    -0.0600 ha         1 D2A       0.124000
     35 H12         -2.0580     2.0400    -0.0480 ha         1 D2A       0.119500
     36 H17          2.5140     1.7010    -0.0720 hn         1 D2A       0.359000
     37 H18          5.3220     2.0120    -0.1100 ha         1 D2A       0.141000
     38 H19          5.0430    -2.9910    -0.0330 ha         1 D2A       0.131000
     39 H20          7.2720    -1.8910    -0.0920 ha         1 D2A       0.119000
     40 H231         8.7140    -0.6920     0.7890 hn         1 D2A       0.460500
     41 H232         9.6800     0.7100     0.6370 hn         1 D2A       0.460500
     42 H24          8.9640     2.2310    -0.6110 hn         1 D2A       0.370400
     43 H261        -8.4110    -0.6420    -1.7010 hn         1 D2A       0.460500
     44 H262        -9.8660     0.0180    -1.0940 hn         1 D2A       0.460500
     45 H27         -9.8690     0.6660     0.8960 hn         1 D2A       0.372400
@<TRIPOS>BOND
     1     1     2 ar  
     2     1     6 ar  
     3     1    28 1   
     4     2     3 ar  
     5     2    29 1   
     6     3     4 ar  
     7     3     7 1   
     8     4     5 ar  
     9     4    30 1   
    10     5     6 ar  
    11     5    31 1   
    12     6    25 1   
    13     7     8 ar  
    14     7    12 ar  
    15     8     9 ar  
    16     8    32 1   
    17     9    10 ar  
    18     9    33 1   
    19    10    11 ar  
    20    10    13 1   
    21    11    12 ar  
    22    11    34 1   
    23    12    35 1   
    24    13    14 2   
    25    13    17 1   
    26    14    15 1   
    27    15    16 ar  
    28    15    19 ar  
    29    16    17 1   
    30    16    18 ar  
    31    17    36 1   
    32    18    21 ar  
    33    18    37 1   
    34    19    20 ar  
    35    19    38 1   
    36    20    21 ar  
    37    20    39 1   
    38    21    22 1   
    39    22    23 1   
    40    22    24 2   
    41    23    40 1   
    42    23    41 1   
    43    24    42 1   
    44    25    26 1   
    45    25    27 2   
    46    26    43 1   
    47    26    44 1   
    48    27    45 1   
@<TRIPOS>SUBSTRUCTURE
     1 D2A         1 TEMP              0 ****  ****    0 ROOT
