@<TRIPOS>MOLECULE
D2A
   45    48     1     0     0
SMALL
bcc


@<TRIPOS>ATOM
      1 C1          -5.9810    -0.8900    -0.6640 ca         1 D2A      -0.097000
      2 C2          -4.5970    -0.9530    -0.6680 ca         1 D2A      -0.125500
      3 C3          -3.8340    -0.0150     0.0270 cp         1 D2A      -0.026000
      4 C4          -4.5050     0.9840     0.7370 ca         1 D2A      -0.125500
      5 C5          -5.8870     1.0400     0.7510 ca         1 D2A      -0.097000
      6 C6          -6.6460     0.1090     0.0450 ca         1 D2A      -0.139900
      7 C7          -2.3610    -0.0780     0.0150 cp         1 D2A      -0.020000
      8 C8          -1.6940    -1.3060     0.0090 ca         1 D2A      -0.121000
      9 C9          -0.3150    -1.3680    -0.0030 ca         1 D2A      -0.100500
     10 C10          0.4500    -0.2000    -0.0140 ca         1 D2A      -0.112900
     11 C11         -0.2100     1.0290    -0.0080 ca         1 D2A      -0.100500
     12 C12         -1.5930     1.0860     0.0070 ca         1 D2A      -0.121000
     13 C13          1.9050    -0.3050    -0.0270 cc         1 D2A       0.477400
     14 N14          2.5610    -1.4390     0.0220 nd         1 D2A      -0.578100
     15 C15          3.8840    -1.0980    -0.0110 ca         1 D2A       0.086400
     16 C16          4.0210     0.2990    -0.0840 ca         1 D2A      -0.092200
     17 N17          2.7370     0.7700    -0.0910 na         1 D2A      -0.253300
     18 C18          5.2510     0.9330    -0.1350 ca         1 D2A      -0.078000
     19 C19          5.0250    -1.8990     0.0160 ca         1 D2A      -0.078000
     20 C20          6.2570    -1.2750    -0.0240 ca         1 D2A      -0.136000
     21 C21          6.3820     0.1270    -0.0960 ca         1 D2A      -0.134900
     22 C22          7.7210     0.7760    -0.1530 ce         1 D2A       0.661800
     23 N23          8.7510     0.0390     0.3600 nv         1 D2A      -0.963800
     24 N24          7.8260     1.9240    -0.7050 n2         1 D2A      -0.832100
     25 C25         -8.1310     0.1930     0.0800 ce         1 D2A       0.658800
     26 N26         -8.7730    -0.3900    -0.9760 nv         1 D2A      -0.964800
     27 N27         -8.6880     0.7430     1.0890 n2         1 D2A      -0.825100
     28 H1          -6.5350    -1.6420    -1.2100 ha         1 D2A       0.146500
     29 H2          -4.1100    -1.7340    -1.2380 ha         1 D2A       0.136000
     30 H4          -3.9440     1.7180     1.3000 ha         1 D2A       0.136000
     31 H5          -6.3880     1.8170     1.3120 ha         1 D2A       0.146500
     32 H8          -2.2600    -2.2280     0.0370 ha         1 D2A       0.137500
     33 H9           0.1800    -2.3290     0.0010 ha         1 D2A       0.142000
     34 H11          0.3400     1.9610    -0.0210 ha         1 D2A       0.142000
     35 H12         -2.0750     2.0550    -0.0080 ha         1 D2A       0.137500
     36 H17          2.4710     1.7400    -0.1460 hn         1 D2A       0.308700
     37 H18          5.3430     2.0090    -0.1940 ha         1 D2A       0.159000
     38 H19          4.9500    -2.9770     0.0610 ha         1 D2A       0.149000
     39 H20          7.1460    -1.8920    -0.0210 ha         1 D2A       0.137000
     40 H231         8.5490    -0.6140     1.0990 hn         1 D2A       0.405300
     41 H232         9.6390     0.5040     0.4680 hn         1 D2A       0.405300
     42 H24          8.7810     2.2690    -0.6480 hn         1 D2A       0.370400
     43 H261        -8.2990    -0.4230    -1.8640 hn         1 D2A       0.405300
     44 H262        -9.7640    -0.2290    -1.0590 hn         1 D2A       0.405300
     45 H27         -9.6990     0.7650     0.9850 hn         1 D2A       0.372400
@<TRIPOS>BOND
     1     1     2 ar  
     2     1     6 ar  
     3     1    28 1   
     4     2     3 ar  
     5     2    29 1   
     6     3     4 ar  
     7     3     7 1   
     8     4     5 ar  
     9     4    30 1   
    10     5     6 ar  
    11     5    31 1   
    12     6    25 1   
    13     7     8 ar  
    14     7    12 ar  
    15     8     9 ar  
    16     8    32 1   
    17     9    10 ar  
    18     9    33 1   
    19    10    11 ar  
    20    10    13 1   
    21    11    12 ar  
    22    11    34 1   
    23    12    35 1   
    24    13    14 2   
    25    13    17 1   
    26    14    15 1   
    27    15    16 ar  
    28    15    19 ar  
    29    16    17 1   
    30    16    18 ar  
    31    17    36 1   
    32    18    21 ar  
    33    18    37 1   
    34    19    20 ar  
    35    19    38 1   
    36    20    21 ar  
    37    20    39 1   
    38    21    22 1   
    39    22    23 1   
    40    22    24 2   
    41    23    40 1   
    42    23    41 1   
    43    24    42 1   
    44    25    26 1   
    45    25    27 2   
    46    26    43 1   
    47    26    44 1   
    48    27    45 1   
@<TRIPOS>SUBSTRUCTURE
     1 D2A         1 TEMP              0 ****  ****    0 ROOT
