@<TRIPOS>MOLECULE
D2B
   44    46     1     0     0
SMALL
abcg2


@<TRIPOS>ATOM
      1 N1          17.8010     7.7020     2.7990 nb         1 D2B      -0.351000
      2 C2          17.5250     6.7820     3.7410 ca         1 D2B       0.422900
      3 N3          16.8380     5.6380     3.5700 nb         1 D2B      -0.268000
      4 C4          16.4640     5.4630     2.3130 ca         1 D2B       0.330300
      5 C5          16.6970     6.2980     1.2280 ca         1 D2B      -0.325800
      6 C6          17.3880     7.4900     1.5400 ca         1 D2B       0.469900
      7 CAB         14.0570     2.1280    -2.4240 c3         1 D2B       0.145900
      8 CAC         14.9770     5.7840    -4.6460 c3         1 D2B      -0.083600
      9 NAD         18.0190     7.0230     4.9870 nv         1 D2B      -1.053900
     10 NAE         17.6370     8.4540     0.6330 nv         1 D2B      -1.078900
     11 CAG         11.1080     4.8800    -1.2270 ca         1 D2B      -0.070000
     12 CAH         11.4320     6.2270    -1.1410 ca         1 D2B      -0.143000
     13 CAI         12.0660     3.9470    -1.6130 ca         1 D2B      -0.194000
     14 CAJ         12.7270     6.6350    -1.4490 ca         1 D2B      -0.066000
     15 CAK         15.5250     4.5240     0.5590 cc         1 D2B      -0.074900
     16 CAL         16.5010     7.5940    -3.7930 c3         1 D2B      -0.083600
     17 OAP         15.7540     4.3770     1.9220 os         1 D2B      -0.295400
     18 CAQ         15.0740     6.2190    -2.1650 ce         1 D2B      -0.027400
     19 CAS         16.0680     5.6710     0.0780 cd         1 D2B      -0.043200
     20 CAU         13.3630     4.3650    -1.9130 ca         1 D2B       0.139100
     21 CAV         13.7090     5.7240    -1.8270 ca         1 D2B      -0.085800
     22 CAY         15.2000     6.8360    -3.5470 c3         1 D2B      -0.023500
     23 HAB         14.9830     1.6540    -2.7410 h1         1 D2B       0.042700
     24 HABA        13.7340     1.7000    -1.4720 h1         1 D2B       0.042700
     25 HABB        13.2840     1.9660    -3.1790 h1         1 D2B       0.042700
     26 HAC         14.0290     5.2620    -4.5170 hc         1 D2B       0.035533
     27 HACA        14.9720     6.2640    -5.6260 hc         1 D2B       0.035533
     28 HACB        15.7780     5.0420    -4.6300 hc         1 D2B       0.035533
     29 HNAD        18.3310     7.9570     5.1940 hn         1 D2B       0.491500
     30 HNAA        17.6430     6.4840     5.7500 hn         1 D2B       0.491500
     31 HNAE        18.2060     9.2410     0.8980 hn         1 D2B       0.499500
     32 HNAB        17.4230     8.3240    -0.3400 hn         1 D2B       0.499500
     33 HAF         17.0310     6.6220    -1.5920 ha         1 D2B       0.170000
     34 HAG         10.1060     4.5430    -0.9950 ha         1 D2B       0.113000
     35 HAH         10.6900     6.9550    -0.8390 ha         1 D2B       0.118000
     36 HAI         11.7980     2.9030    -1.6750 ha         1 D2B       0.117000
     37 HAJ         12.9920     7.6840    -1.3880 ha         1 D2B       0.116000
     38 HAK         15.0050     3.7090     0.0910 h4         1 D2B       0.248000
     39 HAL         16.6620     8.3760    -3.0480 hc         1 D2B       0.035533
     40 HALA        17.3630     6.9230    -3.7740 hc         1 D2B       0.035533
     41 HALB        16.4700     8.0650    -4.7770 hc         1 D2B       0.035533
     42 HAY         14.3740     7.5550    -3.6230 hc         1 D2B       0.050700
     43 CAF         16.0850     6.1870    -1.2890 cf         1 D2B      -0.147000
     44 OAO         14.3580     3.5150    -2.2880 os         1 D2B      -0.350100
@<TRIPOS>BOND
     1     1     2 ar  
     2     1     6 ar  
     3     2     3 ar  
     4     2     9 1   
     5     3     4 ar  
     6     4     5 ar  
     7     4    17 1   
     8     5     6 ar  
     9     5    19 1   
    10     6    10 1   
    11     7    23 1   
    12     7    24 1   
    13     7    25 1   
    14     7    44 1   
    15     8    22 1   
    16     8    26 1   
    17     8    27 1   
    18     8    28 1   
    19     9    29 1   
    20     9    30 1   
    21    10    31 1   
    22    10    32 1   
    23    11    12 ar  
    24    11    13 ar  
    25    11    34 1   
    26    12    14 ar  
    27    12    35 1   
    28    13    20 ar  
    29    13    36 1   
    30    14    21 ar  
    31    14    37 1   
    32    15    17 1   
    33    15    19 2   
    34    15    38 1   
    35    16    22 1   
    36    16    39 1   
    37    16    40 1   
    38    16    41 1   
    39    18    21 1   
    40    18    22 1   
    41    18    43 2   
    42    19    43 1   
    43    20    21 ar  
    44    20    44 1   
    45    22    42 1   
    46    33    43 1   
@<TRIPOS>SUBSTRUCTURE
     1 D2B         1 TEMP              0 ****  ****    0 ROOT
