@<TRIPOS>MOLECULE
D2B
   44    46     1     0     0
SMALL
No Charge or Current Charge


@<TRIPOS>ATOM
      1 N1          18.1390     7.7600     2.6020 nb         1 D2B      -0.351000
      2 C2          17.7560     7.0220     3.6590 ca         1 D2B       0.422900
      3 N3          16.9060     5.9800     3.6820 nb         1 D2B      -0.268000
      4 C4          16.4040     5.6510     2.4800 ca         1 D2B       0.330300
      5 C5          16.7380     6.3220     1.3360 ca         1 D2B      -0.325800
      6 C6          17.6170     7.4000     1.4230 ca         1 D2B       0.469900
      7 CAB         13.3370     2.2570    -3.4350 c3         1 D2B       0.145900
      8 CAC         16.4450     5.4720    -4.1940 c3         1 D2B      -0.083600
      9 NAD         18.2850     7.3890     4.8480 nv         1 D2B      -1.053900
     10 NAE         17.9620     8.1660     0.3660 nv         1 D2B      -1.078900
     11 CAG         11.0190     4.9660    -1.0200 ca         1 D2B      -0.070000
     12 CAH         11.6090     6.1580    -0.5740 ca         1 D2B      -0.143000
     13 CAI         11.7560     4.0710    -1.8140 ca         1 D2B      -0.194000
     14 CAJ         12.9350     6.4600    -0.9240 ca         1 D2B      -0.066000
     15 CAK         15.2750     4.6680     0.8670 cc         1 D2B      -0.074900
     16 CAL         15.5790     7.8240    -3.6860 c3         1 D2B      -0.083600
     17 OAP         15.5050     4.6320     2.2460 os         1 D2B      -0.295400
     18 CAQ         15.0880     5.9260    -2.0690 ce         1 D2B      -0.027400
     19 CAS         16.0110     5.6820     0.2800 cd         1 D2B      -0.043200
     20 CAU         13.0910     4.3690    -2.1700 ca         1 D2B       0.139100
     21 CAV         13.6800     5.5740    -1.7240 ca         1 D2B      -0.085800
     22 CAY         15.3250     6.3080    -3.5310 c3         1 D2B      -0.023500
     23 HAB         14.1070     1.7350    -4.0170 h1         1 D2B       0.042700
     24 HABA        13.0300     1.6010    -2.6110 h1         1 D2B       0.042700
     25 HABB        12.4740     2.4290    -4.0910 h1         1 D2B       0.042700
     26 HAC         16.2440     4.4000    -4.0820 hc         1 D2B       0.035533
     27 HACA        16.5060     5.6940    -5.2660 hc         1 D2B       0.035533
     28 HACB        17.4220     5.6860    -3.7470 hc         1 D2B       0.035533
     29 HNAD        18.7410     8.2960     4.9080 hn         1 D2B       0.491500
     30 HNAA        17.8610     7.0310     5.7000 hn         1 D2B       0.491500
     31 HNAE        18.4160     9.0510     0.5730 hn         1 D2B       0.499500
     32 HNAB        17.3290     8.1710    -0.4260 hn         1 D2B       0.499500
     33 HAF         17.0790     6.3020    -1.4890 ha         1 D2B       0.170000
     34 HAG          9.9910     4.7330    -0.7470 ha         1 D2B       0.113000
     35 HAH         11.0390     6.8490     0.0440 ha         1 D2B       0.118000
     36 HAI         11.2750     3.1540    -2.1390 ha         1 D2B       0.117000
     37 HAJ         13.3880     7.3850    -0.5740 ha         1 D2B       0.116000
     38 HAK         14.6080     3.9260     0.4380 h4         1 D2B       0.248000
     39 HAL         14.7510     8.3970    -3.2520 hc         1 D2B       0.035533
     40 HALA        16.5060     8.1220    -3.1820 hc         1 D2B       0.035533
     41 HALB        15.6620     8.0960    -4.7450 hc         1 D2B       0.035533
     42 HAY         14.4100     6.0940    -4.0980 hc         1 D2B       0.050700
     43 CAF         16.0960     5.9790    -1.1490 cf         1 D2B      -0.147000
     44 OAO         13.8530     3.5020    -2.9330 os         1 D2B      -0.350100
@<TRIPOS>BOND
     1     1     2 ar  
     2     1     6 ar  
     3     2     3 ar  
     4     2     9 1   
     5     3     4 ar  
     6     4     5 ar  
     7     4    17 1   
     8     5     6 ar  
     9     5    19 1   
    10     6    10 1   
    11     7    23 1   
    12     7    24 1   
    13     7    25 1   
    14     7    44 1   
    15     8    22 1   
    16     8    26 1   
    17     8    27 1   
    18     8    28 1   
    19     9    29 1   
    20     9    30 1   
    21    10    31 1   
    22    10    32 1   
    23    11    12 ar  
    24    11    13 ar  
    25    11    34 1   
    26    12    14 ar  
    27    12    35 1   
    28    13    20 ar  
    29    13    36 1   
    30    14    21 ar  
    31    14    37 1   
    32    15    17 1   
    33    15    19 2   
    34    15    38 1   
    35    16    22 1   
    36    16    39 1   
    37    16    40 1   
    38    16    41 1   
    39    18    21 1   
    40    18    22 1   
    41    18    43 2   
    42    19    43 1   
    43    20    21 ar  
    44    20    44 1   
    45    22    42 1   
    46    33    43 1   
@<TRIPOS>SUBSTRUCTURE
     1 D2B         1 TEMP              0 ****  ****    0 ROOT
