@<TRIPOS>MOLECULE
D2C
   56    59     1     0     0
SMALL
bcc


@<TRIPOS>ATOM
      1 C1           2.8740     3.6770     1.0370 c3         1 D2C       0.175100
      2 N1           2.5420     2.8020    -0.0640 n3         1 D2C      -0.760600
      3 C2           3.1370     3.1980    -1.3210 c3         1 D2C       0.175100
      4 C3           2.5090     1.4030     0.2470 c6         1 D2C       0.124500
      5 C4           3.8710     0.7490     0.4560 c          1 D2C       0.555100
      6 O1           4.9030     1.3690     0.4530 o          1 D2C      -0.487100
      7 C5           1.7240     0.5510    -0.7770 c6         1 D2C      -0.050700
      8 C6           0.3690     1.1730    -1.1680 c6         1 D2C      -0.068400
      9 C7          -0.7820     0.5040    -0.4340 c6         1 D2C      -0.051700
     10 C8          -2.1160     1.1960    -0.6380 c6         1 D2C       0.199400
     11 O2          -2.3940     1.2650    -2.0190 oh         1 D2C      -0.593800
     12 C9          -3.2130     0.4550     0.1080 ca         1 D2C      -0.056300
     13 C10         -4.4120     1.0990     0.3990 ca         1 D2C      -0.014600
     14 CL1         -4.6730     2.7410    -0.1280 cl         1 D2C      -0.124400
     15 C11         -5.4250     0.4760     1.1060 ca         1 D2C      -0.073000
     16 C12         -5.2540    -0.8300     1.5220 ca         1 D2C      -0.163000
     17 C13         -4.0760    -1.5100     1.2320 ca         1 D2C       0.170100
     18 O3          -3.9670    -2.7730     1.6780 oh         1 D2C      -0.509100
     19 C14         -3.0490    -0.8740     0.5140 ca         1 D2C      -0.202300
     20 C15         -1.7620    -1.6430     0.2490 c6         1 D2C       0.200400
     21 O4          -2.0360    -3.0010    -0.0770 oh         1 D2C      -0.607800
     22 C16         -0.8980    -0.9740    -0.8050 c6         1 D2C      -0.130700
     23 C17          0.4790    -1.6520    -0.9760 c6         1 D2C       0.177100
     24 O5           0.8460    -1.7960    -2.3290 oh         1 D2C      -0.574800
     25 C18          1.5200    -0.8610    -0.1920 c6         1 D2C      -0.200700
     26 C19          2.8480    -1.5500    -0.0460 c          1 D2C       0.598100
     27 O6           3.0860    -2.6620    -0.4390 o          1 D2C      -0.462100
     28 C20          3.8830    -0.7510     0.7350 c6         1 D2C      -0.377700
     29 C21          5.2780    -1.3230     0.5360 c          1 D2C       0.707100
     30 O7           5.7900    -1.3320    -0.5700 o          1 D2C      -0.572100
     31 N2           5.8630    -1.7960     1.6400 nt         1 D2C      -0.668000
     32 H11A         2.3300     3.3690     1.9320 h1         1 D2C       0.036367
     33 H12A         3.9410     3.7110     1.2880 h1         1 D2C       0.036367
     34 H13          2.5580     4.6950     0.7990 h1         1 D2C       0.036367
     35 H21          4.2290     3.1190    -1.3570 h1         1 D2C       0.036367
     36 H22          2.7300     2.6110    -2.1450 h1         1 D2C       0.036367
     37 H23          2.8770     4.2390    -1.5190 h1         1 D2C       0.036367
     38 H3           1.9820     1.3060     1.2090 h1         1 D2C       0.066700
     39 H5           2.3360     0.4630    -1.6810 hc         1 D2C       0.071700
     40 H61          0.3900     2.2420    -0.9480 hc         1 D2C       0.068700
     41 H62          0.2190     1.0900    -2.2480 hc         1 D2C       0.068700
     42 H7          -0.5860     0.5830     0.6440 hc         1 D2C       0.053700
     43 H8          -2.0310     2.2030    -0.2120 h1         1 D2C       0.055700
     44 HO2         -3.1090     1.8940    -2.1600 ho         1 D2C       0.418000
     45 H11         -6.3440     1.0000     1.3290 ha         1 D2C       0.153000
     46 H12         -6.0380    -1.3320     2.0750 ha         1 D2C       0.156000
     47 HO3         -3.2510    -3.2140     1.1810 ho         1 D2C       0.461000
     48 H15         -1.1950    -1.6950     1.1880 h1         1 D2C       0.078700
     49 HO4         -2.4680    -3.0340    -0.9400 ho         1 D2C       0.425000
     50 H16         -1.4240    -1.0530    -1.7660 hc         1 D2C       0.087700
     51 H17          0.4320    -2.6690    -0.5820 h1         1 D2C       0.100700
     52 HO5          0.7530    -0.9510    -2.7790 ho         1 D2C       0.404000
     53 H18          1.1470    -0.7500     0.8380 hc         1 D2C       0.066700
     54 H20          3.5520    -0.8370     1.7820 hc         1 D2C       0.082700
     55 HN21         5.4110    -1.7740     2.5370 hn         1 D2C       0.316000
     56 HN22         6.7860    -2.2000     1.5960 hn         1 D2C       0.316000
@<TRIPOS>BOND
     1     1     2 1   
     2     1    32 1   
     3     1    33 1   
     4     1    34 1   
     5     2     3 1   
     6     2     4 1   
     7     3    35 1   
     8     3    36 1   
     9     3    37 1   
    10     4     5 1   
    11     4     7 1   
    12     4    38 1   
    13     5     6 2   
    14     5    28 1   
    15     7     8 1   
    16     7    25 1   
    17     7    39 1   
    18     8     9 1   
    19     8    40 1   
    20     8    41 1   
    21     9    10 1   
    22     9    22 1   
    23     9    42 1   
    24    10    11 1   
    25    10    12 1   
    26    10    43 1   
    27    11    44 1   
    28    12    13 ar  
    29    12    19 ar  
    30    13    14 1   
    31    13    15 ar  
    32    15    16 ar  
    33    15    45 1   
    34    16    17 ar  
    35    16    46 1   
    36    17    18 1   
    37    17    19 ar  
    38    18    47 1   
    39    19    20 1   
    40    20    21 1   
    41    20    22 1   
    42    20    48 1   
    43    21    49 1   
    44    22    23 1   
    45    22    50 1   
    46    23    24 1   
    47    23    25 1   
    48    23    51 1   
    49    24    52 1   
    50    25    26 1   
    51    25    53 1   
    52    26    27 2   
    53    26    28 1   
    54    28    29 1   
    55    28    54 1   
    56    29    30 2   
    57    29    31 1   
    58    31    55 1   
    59    31    56 1   
@<TRIPOS>SUBSTRUCTURE
     1 D2C         1 TEMP              0 ****  ****    0 ROOT
