@<TRIPOS>MOLECULE
D2C
   56    59     1     0     0
SMALL
No Charge or Current Charge


@<TRIPOS>ATOM
      1 C1           3.5410     3.8820     0.5810 c3         1 D2C       0.175100
      2 N1           2.8780     2.9900    -0.4020 n3         1 D2C      -0.760600
      3 C2           3.4200     3.1620    -1.7760 c3         1 D2C       0.175100
      4 C3           2.7490     1.5590     0.0760 c6         1 D2C       0.124500
      5 C4           4.0760     0.7200     0.2830 c          1 D2C       0.555100
      6 O1           5.1970     1.1590     0.0570 o          1 D2C      -0.487100
      7 C5           1.6860     0.7360    -0.7860 c6         1 D2C      -0.050700
      8 C6           0.2420     1.3770    -0.9480 c6         1 D2C      -0.068400
      9 C7          -0.8750     0.5330    -0.2690 c6         1 D2C      -0.051700
     10 C8          -2.2800     1.1890    -0.3480 c6         1 D2C       0.222600
     11 O2          -2.6480     1.4540    -1.7090 oh         1 D2C      -0.656000
     12 C9          -3.3610     0.3100     0.3110 ca         1 D2C      -0.056300
     13 C10         -4.5790     0.9030     0.7280 ca         1 D2C       0.077000
     14 Cl1         -4.8980     2.6210     0.4780 cl         1 D2C      -0.216000
     15 C11         -5.5700     0.1350     1.3570 ca         1 D2C      -0.055000
     16 C12         -5.3620    -1.2330     1.5770 ca         1 D2C      -0.145000
     17 C13         -4.1700    -1.8370     1.1610 ca         1 D2C       0.170100
     18 O3          -4.0010    -3.1690     1.3710 oh         1 D2C      -0.548100
     19 C14         -3.1560    -1.0880     0.5170 ca         1 D2C      -0.202300
     20 C15         -1.8250    -1.7740     0.1220 c6         1 D2C       0.223600
     21 O4          -2.0930    -3.0420    -0.4870 oh         1 D2C      -0.670000
     22 C16         -0.9350    -0.9280    -0.8250 c6         1 D2C      -0.130700
     23 C17          0.4820    -1.5740    -1.0460 c6         1 D2C       0.200300
     24 O5           0.7570    -1.6360    -2.4490 oh         1 D2C      -0.637000
     25 C18          1.5890    -0.7590    -0.3300 c6         1 D2C      -0.200700
     26 C19          2.9930    -1.3890    -0.2600 c          1 D2C       0.598100
     27 O6           3.4470    -2.1270    -1.1210 o          1 D2C      -0.462100
     28 C20          3.8630    -0.7030     0.7640 c6         1 D2C      -0.377700
     29 C21          5.1030    -1.4560     1.1650 c          1 D2C       0.640100
     30 O7           5.9990    -1.7440     0.3930 o          1 D2C      -0.572100
     31 N2           5.1770    -1.8120     2.4620 nt         1 D2C      -0.601000
     32 H11A         3.0660     3.7970     1.5670 h1         1 D2C       0.036367
     33 H12A         4.6060     3.6380     0.6900 h1         1 D2C       0.036367
     34 H13          3.4650     4.9310     0.2630 h1         1 D2C       0.036367
     35 H21          4.4460     2.7800    -1.8530 h1         1 D2C       0.036367
     36 H22          2.8000     2.6450    -2.5190 h1         1 D2C       0.036367
     37 H23          3.4350     4.2250    -2.0510 h1         1 D2C       0.036367
     38 H3           2.3210     1.5950     1.0890 h1         1 D2C       0.066700
     39 H5           2.1160     0.6960    -1.7950 hc         1 D2C       0.071700
     40 H61          0.2340     2.3950    -0.5350 hc         1 D2C       0.068700
     41 H62          0.0190     1.4930    -2.0180 hc         1 D2C       0.068700
     42 H7          -0.6310     0.4880     0.8030 hc         1 D2C       0.053700
     43 H8          -2.2190     2.1370     0.2070 h1         1 D2C       0.055700
     44 HO2         -3.5360     1.8700    -1.6720 ho         1 D2C       0.457000
     45 H11         -6.4990     0.6030     1.6750 ha         1 D2C       0.135000
     46 H12         -6.1310    -1.8270     2.0660 ha         1 D2C       0.138000
     47 HO3         -3.2390    -3.4220     0.7880 ho         1 D2C       0.500000
     48 H15         -1.2630    -1.9290     1.0570 h1         1 D2C       0.078700
     49 HO4         -2.3080    -2.8570    -1.4290 ho         1 D2C       0.464000
     50 H16         -1.4460    -0.8920    -1.7980 hc         1 D2C       0.087700
     51 H17          0.4840    -2.5950    -0.6300 h1         1 D2C       0.100700
     52 HO5          0.6180    -0.7320    -2.7990 ho         1 D2C       0.443000
     53 H18          1.2860    -0.6910     0.7230 hc         1 D2C       0.066700
     54 H20          3.2040    -0.5680     1.6300 hc         1 D2C       0.082700
     55 HN21         4.4340    -1.5720     3.1000 hn         1 D2C       0.316000
     56 HN22         5.9870    -2.3190     2.7860 hn         1 D2C       0.316000
@<TRIPOS>BOND
     1     1     2 1   
     2     1    32 1   
     3     1    33 1   
     4     1    34 1   
     5     2     3 1   
     6     2     4 1   
     7     3    35 1   
     8     3    36 1   
     9     3    37 1   
    10     4     5 1   
    11     4     7 1   
    12     4    38 1   
    13     5     6 2   
    14     5    28 1   
    15     7     8 1   
    16     7    25 1   
    17     7    39 1   
    18     8     9 1   
    19     8    40 1   
    20     8    41 1   
    21     9    10 1   
    22     9    22 1   
    23     9    42 1   
    24    10    11 1   
    25    10    12 1   
    26    10    43 1   
    27    11    44 1   
    28    12    13 ar  
    29    12    19 ar  
    30    13    14 1   
    31    13    15 ar  
    32    15    16 ar  
    33    15    45 1   
    34    16    17 ar  
    35    16    46 1   
    36    17    18 1   
    37    17    19 ar  
    38    18    47 1   
    39    19    20 1   
    40    20    21 1   
    41    20    22 1   
    42    20    48 1   
    43    21    49 1   
    44    22    23 1   
    45    22    50 1   
    46    23    24 1   
    47    23    25 1   
    48    23    51 1   
    49    24    52 1   
    50    25    26 1   
    51    25    53 1   
    52    26    27 2   
    53    26    28 1   
    54    28    29 1   
    55    28    54 1   
    56    29    30 2   
    57    29    31 1   
    58    31    55 1   
    59    31    56 1   
@<TRIPOS>SUBSTRUCTURE
     1 D2C         1 TEMP              0 ****  ****    0 ROOT
