@<TRIPOS>MOLECULE
D2D
   47    49     1     0     0
SMALL
No Charge or Current Charge


@<TRIPOS>ATOM
      1 N1          -2.5760    -3.8880     4.1680 nb         1 D2D      -0.348000
      2 C2          -3.2130    -3.5420     5.3030 ca         1 D2D       0.421900
      3 N3          -3.6620    -2.3270     5.6680 nb         1 D2D      -0.266000
      4 C4          -3.4290    -1.3590     4.7670 ca         1 D2D       0.330300
      5 C5          -2.7850    -1.5990     3.5860 ca         1 D2D      -0.324800
      6 C6          -2.3620    -2.8930     3.2980 ca         1 D2D       0.462900
      7 CAA         -5.9580     2.3270    -0.3790 c3         1 D2D      -0.088600
      8 CAB          0.7270     3.0020     0.3800 c3         1 D2D       0.148900
      9 NAC         -3.4250    -4.5480     6.1810 nv         1 D2D      -1.050900
     10 NAD         -1.7470    -3.2270     2.1430 nv         1 D2D      -1.066900
     11 CAF         -0.3820     0.8650    -3.1870 ca         1 D2D      -0.070000
     12 CAG         -1.4930     0.0100    -3.1540 ca         1 D2D      -0.148000
     13 CAH          0.0010     1.5610    -2.0300 ca         1 D2D      -0.198000
     14 CAI         -2.2240    -0.1510    -1.9660 ca         1 D2D      -0.071000
     15 CAJ         -3.3470     0.5800     3.7270 cc         1 D2D      -0.087900
     16 CAL         -4.1400     0.6780     0.3440 c3         1 D2D      -0.038200
     17 OAP         -3.7980    -0.0360     4.9000 os         1 D2D      -0.293400
     18 CAQ         -2.6470     0.3610     0.4560 ce         1 D2D      -0.031400
     19 CAS         -2.7290    -0.3430     2.9050 cd         1 D2D      -0.039200
     20 CAU         -0.7280     1.4060    -0.8280 ca         1 D2D       0.147100
     21 CAV         -1.8510     0.5440    -0.7970 ca         1 D2D      -0.088800
     22 HAA         -6.1600     3.3470    -0.7280 hc         1 D2D       0.033533
     23 HAAA        -6.2950     1.6320    -1.1580 hc         1 D2D       0.033533
     24 HAAB        -6.5560     2.1470     0.5230 hc         1 D2D       0.033533
     25 HAB          0.8170     3.4290     1.3860 h1         1 D2D       0.043033
     26 HABA         1.6690     2.4900     0.1430 h1         1 D2D       0.043033
     27 HABB         0.5860     3.8280    -0.3290 h1         1 D2D       0.043033
     28 HNAC        -2.9120    -5.4160     6.0470 hn         1 D2D       0.491000
     29 HNAA        -3.6880    -4.3140     7.1350 hn         1 D2D       0.491000
     30 HNAD        -1.7020    -4.2140     1.9070 hn         1 D2D       0.495500
     31 HNAB        -1.8380    -2.5820     1.3650 hn         1 D2D       0.495500
     32 HAE         -1.0250    -0.3310     1.5940 ha         1 D2D       0.182000
     33 HAF          0.1820     0.9880    -4.1090 ha         1 D2D       0.113000
     34 HAG         -1.7890    -0.5320    -4.0500 ha         1 D2D       0.117000
     35 HAH          0.8650     2.2170    -2.0850 ha         1 D2D       0.117000
     36 HAI         -3.0770    -0.8240    -1.9540 ha         1 D2D       0.116000
     37 HAJ         -3.5080     1.6480     3.6150 h4         1 D2D       0.245000
     38 C19         -3.9520     3.1760     0.9400 c3         1 D2D      -0.088600
     39 HAK         -3.9220     2.3280    -1.0310 hc         1 D2D       0.050700
     40 HAL         -4.6620     0.4780     1.2860 hc         1 D2D       0.048700
     41 HALA        -4.5990    -0.0060    -0.3790 hc         1 D2D       0.048700
     42 H20         -2.8780     3.0650     1.1240 hc         1 D2D       0.033533
     43 H21         -4.1250     4.1950     0.5730 hc         1 D2D       0.033533
     44 H22         -4.4800     3.0640     1.8950 hc         1 D2D       0.033533
     45 CAE         -2.0870    -0.0850     1.6190 cf         1 D2D      -0.148000
     46 OAO         -0.3810     2.0860     0.3250 os         1 D2D      -0.347100
     47 CAK         -4.4520     2.1360    -0.0890 c3         1 D2D      -0.060700
@<TRIPOS>BOND
     1     1     2 ar  
     2     1     6 ar  
     3     2     3 ar  
     4     2     9 1   
     5     3     4 ar  
     6     4     5 ar  
     7     4    17 1   
     8     5     6 ar  
     9     5    19 1   
    10     6    10 1   
    11     7    22 1   
    12     7    23 1   
    13     7    24 1   
    14     7    47 1   
    15     8    25 1   
    16     8    26 1   
    17     8    27 1   
    18     8    46 1   
    19     9    28 1   
    20     9    29 1   
    21    10    30 1   
    22    10    31 1   
    23    11    12 ar  
    24    11    13 ar  
    25    11    33 1   
    26    12    14 ar  
    27    12    34 1   
    28    13    20 ar  
    29    13    35 1   
    30    14    21 ar  
    31    14    36 1   
    32    15    17 1   
    33    15    19 2   
    34    15    37 1   
    35    16    18 1   
    36    16    40 1   
    37    16    41 1   
    38    16    47 1   
    39    18    21 1   
    40    18    45 2   
    41    19    45 1   
    42    20    21 ar  
    43    20    46 1   
    44    32    45 1   
    45    38    42 1   
    46    38    43 1   
    47    38    44 1   
    48    38    47 1   
    49    39    47 1   
@<TRIPOS>SUBSTRUCTURE
     1 D2D         1 TEMP              0 ****  ****    0 ROOT
