@<TRIPOS>MOLECULE
D2D
   47    49     1     0     0
SMALL
abcg2


@<TRIPOS>ATOM
      1 N1          -2.2510    -3.7720     4.4160 nb         1 D2D      -0.348000
      2 C2          -2.9990    -3.4500     5.4870 ca         1 D2D       0.421900
      3 N3          -3.6810    -2.3050     5.6740 nb         1 D2D      -0.266000
      4 C4          -3.5370    -1.4660     4.6630 ca         1 D2D       0.330300
      5 C5          -2.7920    -1.6450     3.5050 ca         1 D2D      -0.324800
      6 C6          -2.1380    -2.8930     3.4110 ca         1 D2D       0.462900
      7 CAA         -5.9800     2.5410    -0.3890 c3         1 D2D      -0.088600
      8 CAB          0.8290     2.5240     0.5240 c3         1 D2D       0.148900
      9 NAC         -3.1070    -4.3980     6.4590 nv         1 D2D      -1.050900
     10 NAD         -1.3720    -3.2430     2.3560 nv         1 D2D      -1.066900
     11 CAF         -0.4100     0.9880    -3.1750 ca         1 D2D      -0.070000
     12 CAG         -1.6160     0.3070    -3.2670 ca         1 D2D      -0.148000
     13 CAH          0.0230     1.4830    -1.9490 ca         1 D2D      -0.198000
     14 CAI         -2.3820     0.1270    -2.1210 ca         1 D2D      -0.071000
     15 CAJ         -3.7860     0.3470     3.4430 cc         1 D2D      -0.087900
     16 CAL         -4.2800     0.7740     0.1660 c3         1 D2D      -0.038200
     17 OAP         -4.1480    -0.2560     4.6420 os         1 D2D      -0.293400
     18 CAQ         -2.8340     0.3810     0.3210 ce         1 D2D      -0.031400
     19 CAS         -2.9670    -0.4460     2.7040 cd         1 D2D      -0.039200
     20 CAU         -0.7450     1.2920    -0.7990 ca         1 D2D       0.147100
     21 CAV         -1.9710     0.5950    -0.8720 ca         1 D2D      -0.088800
     22 HAA         -6.1460     3.5860    -0.6630 hc         1 D2D       0.033533
     23 HAAA        -6.3800     1.9130    -1.1890 hc         1 D2D       0.033533
     24 HAAB        -6.5560     2.3380     0.5190 hc         1 D2D       0.033533
     25 HAB          0.9050     2.8140     1.5690 h1         1 D2D       0.043033
     26 HABA         1.6950     1.9170     0.2480 h1         1 D2D       0.043033
     27 HABB         0.7970     3.4180    -0.1030 h1         1 D2D       0.043033
     28 HNAC        -2.4330    -5.1470     6.4520 hn         1 D2D       0.491000
     29 HNAA        -3.4550    -4.1060     7.3570 hn         1 D2D       0.491000
     30 HNAD        -1.0610    -4.1990     2.2900 hn         1 D2D       0.495500
     31 HNAB        -1.4130    -2.7090     1.5040 hn         1 D2D       0.495500
     32 HAE         -1.2670    -0.4570     1.3950 ha         1 D2D       0.182000
     33 HAF          0.2010     1.1440    -4.0550 ha         1 D2D       0.113000
     34 HAG         -1.9600    -0.0800    -4.2170 ha         1 D2D       0.117000
     35 HAH          0.9580     2.0210    -1.8970 ha         1 D2D       0.117000
     36 HAI         -3.3230    -0.4030    -2.1920 ha         1 D2D       0.116000
     37 HAJ         -4.1690     1.3400     3.2990 h4         1 D2D       0.245000
     38 C19         -3.9260     3.1820     0.9220 c3         1 D2D      -0.088600
     39 HAK         -3.9630     2.4770    -1.0930 hc         1 D2D       0.050700
     40 HAL         -4.8370     0.5130     1.0660 hc         1 D2D       0.048700
     41 HALA        -4.7140     0.1920    -0.6530 hc         1 D2D       0.048700
     42 H20         -2.8670     2.9840     1.0990 hc         1 D2D       0.033533
     43 H21         -4.0330     4.2300     0.6330 hc         1 D2D       0.033533
     44 H22         -4.4590     3.0430     1.8670 hc         1 D2D       0.033533
     45 CAE         -2.3120    -0.1660     1.4300 cf         1 D2D      -0.148000
     46 OAO         -0.3790     1.7760     0.4180 os         1 D2D      -0.347100
     47 CAK         -4.4950     2.2650    -0.1590 c3         1 D2D      -0.060700
@<TRIPOS>BOND
     1     1     2 ar  
     2     1     6 ar  
     3     2     3 ar  
     4     2     9 1   
     5     3     4 ar  
     6     4     5 ar  
     7     4    17 1   
     8     5     6 ar  
     9     5    19 1   
    10     6    10 1   
    11     7    22 1   
    12     7    23 1   
    13     7    24 1   
    14     7    47 1   
    15     8    25 1   
    16     8    26 1   
    17     8    27 1   
    18     8    46 1   
    19     9    28 1   
    20     9    29 1   
    21    10    30 1   
    22    10    31 1   
    23    11    12 ar  
    24    11    13 ar  
    25    11    33 1   
    26    12    14 ar  
    27    12    34 1   
    28    13    20 ar  
    29    13    35 1   
    30    14    21 ar  
    31    14    36 1   
    32    15    17 1   
    33    15    19 2   
    34    15    37 1   
    35    16    18 1   
    36    16    40 1   
    37    16    41 1   
    38    16    47 1   
    39    18    21 1   
    40    18    45 2   
    41    19    45 1   
    42    20    21 ar  
    43    20    46 1   
    44    32    45 1   
    45    38    42 1   
    46    38    43 1   
    47    38    44 1   
    48    38    47 1   
    49    39    47 1   
@<TRIPOS>SUBSTRUCTURE
     1 D2D         1 TEMP              0 ****  ****    0 ROOT
