@<TRIPOS>MOLECULE
D2E
   42    45     1     0     0
SMALL
abcg2


@<TRIPOS>ATOM
      1 N1          17.0110     5.8440     3.7860 nb         1 D2E      -0.348000
      2 C2          18.1220     6.6010     3.7860 ca         1 D2E       0.421900
      3 N3          18.5910     7.3350     2.7600 nb         1 D2E      -0.265000
      4 C4          17.8020     7.2750     1.7010 ca         1 D2E       0.330300
      5 C5          16.6140     6.5710     1.5580 ca         1 D2E      -0.322800
      6 C6          16.2460     5.8050     2.6860 ca         1 D2E       0.462900
      7 CAA         13.8380     2.1220    -2.8380 c3         1 D2E       0.146900
      8 NAB         18.8250     6.6490     4.9510 nv         1 D2E      -1.049900
      9 NAC         15.1350     5.0380     2.7290 nv         1 D2E      -1.063900
     10 CAE         10.6630     4.8860    -2.7640 ca         1 D2E      -0.069000
     11 CAF         10.9120     6.1940    -2.3770 ca         1 D2E      -0.147000
     12 CAG         11.6900     3.9460    -2.7870 ca         1 D2E      -0.199000
     13 CAH         12.2070     6.5620    -2.0170 ca         1 D2E      -0.066000
     14 CAI         17.0730     7.6470    -0.3410 cc         1 D2E      -0.087900
     15 CAJ         15.4390     7.2720    -3.8150 cx         1 D2E      -0.119400
     16 CAK         15.3810     5.8180    -4.1660 cx         1 D2E      -0.119400
     17 OAO         18.0960     7.9340     0.5530 os         1 D2E      -0.293400
     18 CAP         14.6320     6.0660    -1.6630 ce         1 D2E       0.006600
     19 CAR         16.1390     6.8230     0.2070 cd         1 D2E      -0.037200
     20 CAT         12.9830     4.3200    -2.4220 ca         1 D2E       0.148100
     21 CAU         13.2550     5.6460    -2.0380 ca         1 D2E      -0.095800
     22 CAX         15.6410     6.2160    -2.7380 cx         1 D2E      -0.095500
     23 HAA         14.8080     1.6370    -2.7610 h1         1 D2E       0.042367
     24 HAAA        13.1140     1.5960    -2.2110 h1         1 D2E       0.042367
     25 HAAB        13.5000     2.1070    -3.8770 h1         1 D2E       0.042367
     26 HNAB        18.6300     5.9390     5.6380 hn         1 D2E       0.491000
     27 HNAA        19.7670     7.0020     4.9120 hn         1 D2E       0.491000
     28 HNAC        15.0260     4.4120     3.5110 hn         1 D2E       0.494500
     29 HNAD        14.6510     4.8000     1.8800 hn         1 D2E       0.494500
     30 HAD         14.0910     6.1700     0.3380 ha         1 D2E       0.176000
     31 HAE          9.6630     4.5810    -3.0490 ha         1 D2E       0.113000
     32 HAF         10.1140     6.9250    -2.3570 ha         1 D2E       0.119000
     33 HAG         11.4750     2.9280    -3.0780 ha         1 D2E       0.118000
     34 HAH         12.4200     7.5810    -1.7220 ha         1 D2E       0.120000
     35 HAI         17.1480     8.1400    -1.2930 h4         1 D2E       0.245000
     36 HAJ         16.3040     7.8530    -4.1090 hc         1 D2E       0.072450
     37 HAJA        14.5060     7.8190    -3.7920 hc         1 D2E       0.072450
     38 HAK         14.4150     5.3990    -4.4090 hc         1 D2E       0.072450
     39 HAKA        16.2110     5.3880    -4.7100 hc         1 D2E       0.072450
     40 HAX         16.6650     6.1090    -2.4020 hc         1 D2E       0.086700
     41 CAD         14.8950     6.3330    -0.3710 cf         1 D2E      -0.157000
     42 OAN         14.0350     3.4600    -2.3850 os         1 D2E      -0.342100
@<TRIPOS>BOND
     1     1     2 ar  
     2     1     6 ar  
     3     2     3 ar  
     4     2     8 1   
     5     3     4 ar  
     6     4     5 ar  
     7     4    17 1   
     8     5     6 ar  
     9     5    19 1   
    10     6     9 1   
    11     7    23 1   
    12     7    24 1   
    13     7    25 1   
    14     7    42 1   
    15     8    26 1   
    16     8    27 1   
    17     9    28 1   
    18     9    29 1   
    19    10    11 ar  
    20    10    12 ar  
    21    10    31 1   
    22    11    13 ar  
    23    11    32 1   
    24    12    20 ar  
    25    12    33 1   
    26    13    21 ar  
    27    13    34 1   
    28    14    17 1   
    29    14    19 2   
    30    14    35 1   
    31    15    16 1   
    32    15    22 1   
    33    15    36 1   
    34    15    37 1   
    35    16    22 1   
    36    16    38 1   
    37    16    39 1   
    38    18    21 1   
    39    18    22 1   
    40    18    41 2   
    41    19    41 1   
    42    20    21 ar  
    43    20    42 1   
    44    22    40 1   
    45    30    41 1   
@<TRIPOS>SUBSTRUCTURE
     1 D2E         1 TEMP              0 ****  ****    0 ROOT
