@<TRIPOS>MOLECULE
D2E
   42    45     1     0     0
SMALL
No Charge or Current Charge


@<TRIPOS>ATOM
      1 N1          17.3560     5.3570     2.7310 nb         1 D2E      -0.348000
      2 C2          18.2530     6.3260     2.9960 ca         1 D2E       0.421900
      3 N3          18.3160     7.5670     2.4790 nb         1 D2E      -0.265000
      4 C4          17.3480     7.8440     1.5900 ca         1 D2E       0.330300
      5 C5          16.3900     6.9330     1.2480 ca         1 D2E      -0.322800
      6 C6          16.4070     5.6760     1.8410 ca         1 D2E       0.462900
      7 CAA         13.6880     1.9920    -2.1420 c3         1 D2E       0.146900
      8 NAB         19.2100     6.0020     3.8950 nv         1 D2E      -1.049900
      9 NAC         15.4950     4.7200     1.5610 nv         1 D2E      -1.063900
     10 CAE         10.5300     4.8060    -2.9500 ca         1 D2E      -0.069000
     11 CAF         10.7590     6.1720    -2.7230 ca         1 D2E      -0.147000
     12 CAG         11.5460     3.8720    -2.6910 ca         1 D2E      -0.199000
     13 CAH         12.0030     6.6060    -2.2380 ca         1 D2E      -0.066000
     14 CAI         16.0630     8.8550     0.1130 cc         1 D2E      -0.087900
     15 CAJ         16.4780     6.8950    -2.8050 cx         1 D2E      -0.119400
     16 CAK         16.0050     5.5930    -3.4030 cx         1 D2E      -0.119400
     17 OAO         17.1910     9.0420     0.9210 os         1 D2E      -0.293400
     18 CAP         14.3500     6.1540    -1.4730 ce         1 D2E       0.006600
     19 CAR         15.5550     7.5820     0.2860 cd         1 D2E      -0.037200
     20 CAT         12.8020     4.3010    -2.2020 ca         1 D2E       0.148100
     21 CAU         13.0290     5.6770    -1.9730 ca         1 D2E      -0.095800
     22 CAX         15.7680     5.8790    -1.9370 cx         1 D2E      -0.095500
     23 HAA         14.6140     1.4760    -1.8590 h1         1 D2E       0.042367
     24 HAAA        12.8700     1.5760    -1.5390 h1         1 D2E       0.042367
     25 HAAB        13.4900     1.7800    -3.2000 h1         1 D2E       0.042367
     26 HNAB        19.3290     5.0210     4.1350 hn         1 D2E       0.491000
     27 HNAA        20.0340     6.5940     3.9640 hn         1 D2E       0.491000
     28 HNAC        15.7160     3.7650     1.8230 hn         1 D2E       0.494500
     29 HNAD        14.9300     4.8490     0.7280 hn         1 D2E       0.494500
     30 HAD         13.4460     7.2930     0.0480 ha         1 D2E       0.176000
     31 HAE          9.5650     4.4720    -3.3270 ha         1 D2E       0.113000
     32 HAF          9.9730     6.8950    -2.9270 ha         1 D2E       0.119000
     33 HAG         11.3400     2.8210    -2.8730 ha         1 D2E       0.118000
     34 HAH         12.1730     7.6690    -2.0770 ha         1 D2E       0.120000
     35 HAI         15.7440     9.6760    -0.5240 h4         1 D2E       0.245000
     36 HAJ         17.5460     7.0290    -2.6510 hc         1 D2E       0.072450
     37 HAJA        15.9380     7.8010    -3.0700 hc         1 D2E       0.072450
     38 HAK         15.1500     5.6250    -4.0740 hc         1 D2E       0.072450
     39 HAKA        16.7550     4.8480    -3.6580 hc         1 D2E       0.072450
     40 HAX         16.3600     5.3060    -1.2270 hc         1 D2E       0.086700
     41 CAD         14.3980     6.9960    -0.3930 cf         1 D2E      -0.157000
     42 OAN         13.8190     3.4070    -1.9200 os         1 D2E      -0.342100
@<TRIPOS>BOND
     1     1     2 ar  
     2     1     6 ar  
     3     2     3 ar  
     4     2     8 1   
     5     3     4 ar  
     6     4     5 ar  
     7     4    17 1   
     8     5     6 ar  
     9     5    19 1   
    10     6     9 1   
    11     7    23 1   
    12     7    24 1   
    13     7    25 1   
    14     7    42 1   
    15     8    26 1   
    16     8    27 1   
    17     9    28 1   
    18     9    29 1   
    19    10    11 ar  
    20    10    12 ar  
    21    10    31 1   
    22    11    13 ar  
    23    11    32 1   
    24    12    20 ar  
    25    12    33 1   
    26    13    21 ar  
    27    13    34 1   
    28    14    17 1   
    29    14    19 2   
    30    14    35 1   
    31    15    16 1   
    32    15    22 1   
    33    15    36 1   
    34    15    37 1   
    35    16    22 1   
    36    16    38 1   
    37    16    39 1   
    38    18    21 1   
    39    18    22 1   
    40    18    41 2   
    41    19    41 1   
    42    20    21 ar  
    43    20    42 1   
    44    22    40 1   
    45    30    41 1   
@<TRIPOS>SUBSTRUCTURE
     1 D2E         1 TEMP              0 ****  ****    0 ROOT
