@<TRIPOS>MOLECULE
D2F
   47    49     1     0     0
SMALL
abcg2


@<TRIPOS>ATOM
      1 N1          -3.1380    17.5610    -3.6490 nb         1 D2F      -0.357000
      2 C2          -2.8850    18.8720    -3.8050 ca         1 D2F       0.422900
      3 N3          -3.0010    19.8310    -2.8670 nb         1 D2F      -0.270000
      4 C4          -3.3770    19.3420    -1.6970 ca         1 D2F       0.332300
      5 C5          -3.6400    18.0180    -1.3720 ca         1 D2F      -0.328800
      6 C6          -3.5290    17.1070    -2.4480 ca         1 D2F       0.473900
      7 CAA         -0.2610    16.9830     3.7940 c3         1 D2F      -0.089100
      8 CAB         -4.5370    12.2880    -1.0040 c3         1 D2F       0.148900
      9 NAC         -2.4370    19.2620    -5.0310 nv         1 D2F      -1.048900
     10 NAD         -3.8190    15.7980    -2.3380 nv         1 D2F      -1.075900
     11 CAF         -5.1430    12.3760     3.1730 ca         1 D2F      -0.072000
     12 CAG         -4.8660    13.5440     3.8680 ca         1 D2F      -0.142000
     13 CAH         -4.9440    12.3070     1.7950 ca         1 D2F      -0.189000
     14 CAI         -4.3790    14.6520     3.1770 ca         1 D2F      -0.065000
     15 CAJ         -3.9750    19.2970     0.4200 cc         1 D2F      -0.094900
     16 CAK         -1.2360    16.9920     2.6190 c3         1 D2F      -0.077400
     17 CAM         -2.1790    15.6760     0.6290 c3         1 D2F      -0.042200
     18 OAQ         -3.5740    20.1360    -0.6150 os         1 D2F      -0.293400
     19 CAR         -3.6240    15.7730     1.0540 ce         1 D2F      -0.039400
     20 CAT         -4.0240    18.0030     0.0250 cd         1 D2F      -0.042200
     21 CAV         -4.4580    13.4200     1.1130 ca         1 D2F       0.142100
     22 CAW         -4.1630    14.6080     1.8040 ca         1 D2F      -0.088800
     23 HAA         -0.2920    17.9260     4.3440 hc         1 D2F       0.031033
     24 HAAA        -0.5030    16.1790     4.4930 hc         1 D2F       0.031033
     25 HAAB         0.7660    16.8280     3.4520 hc         1 D2F       0.031033
     26 HAB         -4.3060    12.5480    -2.0340 h1         1 D2F       0.043367
     27 HABA        -3.9100    11.4520    -0.6850 h1         1 D2F       0.043367
     28 HABB        -5.5900    12.0080    -0.9220 h1         1 D2F       0.043367
     29 HNAC        -2.5760    18.6250    -5.7980 hn         1 D2F       0.489000
     30 HNAA        -2.4730    20.2450    -5.2460 hn         1 D2F       0.489000
     31 HNAD        -3.6540    15.1970    -3.1280 hn         1 D2F       0.508000
     32 HNAB        -4.0510    15.3740    -1.4530 hn         1 D2F       0.508000
     33 HAE         -5.4150    16.8270     1.2290 ha         1 D2F       0.185000
     34 HAF         -5.5210    11.5060     3.6950 ha         1 D2F       0.114000
     35 HAG         -5.0240    13.5970     4.9380 ha         1 D2F       0.119000
     36 HAH         -5.1780    11.3950     1.2660 ha         1 D2F       0.118000
     37 HAI         -4.1520    15.5680     3.7080 ha         1 D2F       0.120000
     38 HAJ         -4.1640    19.7820     1.3610 h4         1 D2F       0.241000
     39 HAK         -2.2480    17.1790     2.9870 hc         1 D2F       0.039700
     40 HAKA        -0.9990    17.8230     1.9450 hc         1 D2F       0.039700
     41 HAL         -0.2040    15.5070     1.4520 hc         1 D2F       0.040200
     42 HALA        -1.4540    14.8530     2.4940 hc         1 D2F       0.040200
     43 HAM         -1.9260    16.5000    -0.0390 hc         1 D2F       0.056700
     44 HAMA        -2.0350    14.7480     0.0710 hc         1 D2F       0.056700
     45 CAE         -4.4070    16.8330     0.8270 cf         1 D2F      -0.153000
     46 OAP         -4.2580    13.4570    -0.2360 os         1 D2F      -0.369100
     47 CAL         -1.2160    15.6870     1.8270 c3         1 D2F      -0.069400
@<TRIPOS>BOND
     1     1     2 ar  
     2     1     6 ar  
     3     2     3 ar  
     4     2     9 1   
     5     3     4 ar  
     6     4     5 ar  
     7     4    18 1   
     8     5     6 ar  
     9     5    20 1   
    10     6    10 1   
    11     7    16 1   
    12     7    23 1   
    13     7    24 1   
    14     7    25 1   
    15     8    26 1   
    16     8    27 1   
    17     8    28 1   
    18     8    46 1   
    19     9    29 1   
    20     9    30 1   
    21    10    31 1   
    22    10    32 1   
    23    11    12 ar  
    24    11    13 ar  
    25    11    34 1   
    26    12    14 ar  
    27    12    35 1   
    28    13    21 ar  
    29    13    36 1   
    30    14    22 ar  
    31    14    37 1   
    32    15    18 1   
    33    15    20 2   
    34    15    38 1   
    35    16    39 1   
    36    16    40 1   
    37    16    47 1   
    38    17    19 1   
    39    17    43 1   
    40    17    44 1   
    41    17    47 1   
    42    19    22 1   
    43    19    45 2   
    44    20    45 1   
    45    21    22 ar  
    46    21    46 1   
    47    33    45 1   
    48    41    47 1   
    49    42    47 1   
@<TRIPOS>SUBSTRUCTURE
     1 D2F         1 TEMP              0 ****  ****    0 ROOT
