@<TRIPOS>MOLECULE
D2F
   47    49     1     0     0
SMALL
No Charge or Current Charge


@<TRIPOS>ATOM
      1 N1          -3.1680    17.5760    -3.6170 nb         1 D2F      -0.357000
      2 C2          -2.8110    18.8700    -3.6990 ca         1 D2F       0.422900
      3 N3          -2.8020    19.7970    -2.7230 nb         1 D2F      -0.270000
      4 C4          -3.1990    19.3370    -1.5250 ca         1 D2F       0.332300
      5 C5          -3.5740    18.0400    -1.3280 ca         1 D2F      -0.328800
      6 C6          -3.5590    17.1600    -2.4050 ca         1 D2F       0.473900
      7 CAA         -0.2990    17.4780     3.6260 c3         1 D2F      -0.089100
      8 CAB         -4.7550    12.1640    -1.1330 c3         1 D2F       0.148900
      9 NAC         -2.4190    19.2870    -4.9240 nv         1 D2F      -1.048900
     10 NAD         -3.9380    15.8690    -2.3080 nv         1 D2F      -1.075900
     11 CAF         -5.2360    12.2450     3.1480 ca         1 D2F      -0.072000
     12 CAG         -4.8590    13.3990     3.8540 ca         1 D2F      -0.142000
     13 CAH         -5.0850    12.1930     1.7520 ca         1 D2F      -0.189000
     14 CAI         -4.3260    14.5010     3.1660 ca         1 D2F      -0.065000
     15 CAJ         -3.7420    19.1890     0.6060 cc         1 D2F      -0.094900
     16 CAK         -1.2780    17.2190     2.4660 c3         1 D2F      -0.077400
     17 CAM         -2.1200    15.5180     0.7020 c3         1 D2F      -0.042200
     18 OAQ         -3.2860    20.0860    -0.3680 os         1 D2F      -0.293400
     19 CAR         -3.6000    15.6300     1.0590 ce         1 D2F      -0.039400
     20 CAT         -3.9190    17.9350     0.0540 cd         1 D2F      -0.042200
     21 CAV         -4.5490    13.2990     1.0530 ca         1 D2F       0.142100
     22 CAW         -4.1650    14.4540     1.7690 ca         1 D2F      -0.088800
     23 HAA         -0.4090    18.5040     3.9980 hc         1 D2F       0.031033
     24 HAAA        -0.4920    16.7890     4.4580 hc         1 D2F       0.031033
     25 HAAB         0.7390    17.3420     3.2970 hc         1 D2F       0.031033
     26 HAB         -4.5480    12.3730    -2.1910 h1         1 D2F       0.043367
     27 HABA        -4.1790    11.2760    -0.8440 h1         1 D2F       0.043367
     28 HABB        -5.8250    11.9390    -1.0350 h1         1 D2F       0.043367
     29 HNAC        -2.6260    18.6900    -5.7200 hn         1 D2F       0.489000
     30 HNAA        -2.3630    20.2870    -5.1020 hn         1 D2F       0.489000
     31 HNAD        -3.6620    15.2380    -3.0530 hn         1 D2F       0.508000
     32 HNAB        -4.0260    15.4690    -1.3770 hn         1 D2F       0.508000
     33 HAE         -5.3860    16.7350     1.0800 ha         1 D2F       0.185000
     34 HAF         -5.6490    11.3920     3.6830 ha         1 D2F       0.114000
     35 HAG         -4.9790    13.4390     4.9340 ha         1 D2F       0.119000
     36 HAH         -5.3890    11.2900     1.2310 ha         1 D2F       0.118000
     37 HAI         -4.0340    15.3930     3.7160 ha         1 D2F       0.120000
     38 HAJ         -3.8790    19.5560     1.6190 h4         1 D2F       0.241000
     39 HAK         -2.2990    17.4010     2.8210 hc         1 D2F       0.039700
     40 HAKA        -1.0830    17.9440     1.6650 hc         1 D2F       0.039700
     41 HAL         -0.1420    15.6060     1.5700 hc         1 D2F       0.040200
     42 HALA        -1.3840    15.0610     2.6910 hc         1 D2F       0.040200
     43 HAM         -1.8520    16.2000    -0.1130 hc         1 D2F       0.056700
     44 HAMA        -1.9080    14.5130     0.3190 hc         1 D2F       0.056700
     45 CAE         -4.3470    16.7260     0.7480 cf         1 D2F      -0.153000
     46 OAP         -4.3930    13.2960    -0.3210 os         1 D2F      -0.369100
     47 CAL         -1.1740    15.7860     1.8950 c3         1 D2F      -0.069400
@<TRIPOS>BOND
     1     1     2 ar  
     2     1     6 ar  
     3     2     3 ar  
     4     2     9 1   
     5     3     4 ar  
     6     4     5 ar  
     7     4    18 1   
     8     5     6 ar  
     9     5    20 1   
    10     6    10 1   
    11     7    16 1   
    12     7    23 1   
    13     7    24 1   
    14     7    25 1   
    15     8    26 1   
    16     8    27 1   
    17     8    28 1   
    18     8    46 1   
    19     9    29 1   
    20     9    30 1   
    21    10    31 1   
    22    10    32 1   
    23    11    12 ar  
    24    11    13 ar  
    25    11    34 1   
    26    12    14 ar  
    27    12    35 1   
    28    13    21 ar  
    29    13    36 1   
    30    14    22 ar  
    31    14    37 1   
    32    15    18 1   
    33    15    20 2   
    34    15    38 1   
    35    16    39 1   
    36    16    40 1   
    37    16    47 1   
    38    17    19 1   
    39    17    43 1   
    40    17    44 1   
    41    17    47 1   
    42    19    22 1   
    43    19    45 2   
    44    20    45 1   
    45    21    22 ar  
    46    21    46 1   
    47    33    45 1   
    48    41    47 1   
    49    42    47 1   
@<TRIPOS>SUBSTRUCTURE
     1 D2F         1 TEMP              0 ****  ****    0 ROOT
