@<TRIPOS>MOLECULE
D2G
   26    27     1     0     0
SMALL
abcg2


@<TRIPOS>ATOM
      1 C_1         -1.5680     0.1060     0.0810 ca         1 D2G      -0.169500
      2 C_2         -1.7230    -1.2740    -0.0580 ca         1 D2G      -0.055000
      3 C_3         -2.9940    -1.8180     0.0120 ca         1 D2G      -0.165000
      4 C_4         -4.0740    -0.9740     0.2180 ca         1 D2G       0.338900
      5 N_1         -3.9430     0.3430     0.3500 nb         1 D2G      -0.665000
      6 C_5         -2.7280     0.8610     0.2810 ca         1 D2G       0.352900
      7 C_6         -0.2720     0.7540     0.0250 cc         1 D2G       0.188500
      8 C_7          0.1350     2.0380     0.2220 cd         1 D2G      -0.162000
      9 C_8          1.5460     2.0430     0.0360 cd         1 D2G      -0.169000
     10 C_9          1.9010     0.7680    -0.2640 cc         1 D2G       0.142300
     11 O_1          0.7990    -0.0150    -0.2720 os         1 D2G      -0.246000
     12 C10          3.2030     0.1220    -0.5640 c3         1 D2G       0.127500
     13 N_2          3.5890    -0.8340     0.4610 n7         1 D2G      -0.849400
     14 C11          4.8810    -1.4280     0.1810 c3         1 D2G       0.140100
     15 H_2         -0.8690    -1.9190    -0.2130 ha         1 D2G       0.129000
     16 H_3         -3.1460    -2.8840    -0.0890 ha         1 D2G       0.125000
     17 H_4         -5.0800    -1.3710     0.2780 h4         1 D2G       0.021100
     18 H_5         -2.6620     1.9380     0.3860 h4         1 D2G       0.021100
     19 H_7         -0.4850     2.8820     0.4780 ha         1 D2G       0.143000
     20 H_8          2.2140     2.8850     0.1150 ha         1 D2G       0.144000
     21 H101         3.9550     0.9120    -0.6050 h1         1 D2G       0.048200
     22 H102         3.1720    -0.3250    -1.5710 h1         1 D2G       0.048200
     23 H1           2.8970    -1.5720     0.5020 hn         1 D2G       0.414000
     24 H111         5.1010    -2.1930     0.9240 h1         1 D2G       0.032033
     25 H112         4.9560    -1.8900    -0.8140 h1         1 D2G       0.032033
     26 H113         5.6620    -0.6680     0.2480 h1         1 D2G       0.032033
@<TRIPOS>BOND
     1     1     2 ar  
     2     1     6 ar  
     3     1     7 1   
     4     2     3 ar  
     5     2    15 1   
     6     3     4 ar  
     7     3    16 1   
     8     4     5 ar  
     9     4    17 1   
    10     5     6 ar  
    11     6    18 1   
    12     7     8 2   
    13     7    11 1   
    14     8     9 1   
    15     8    19 1   
    16     9    10 2   
    17     9    20 1   
    18    10    11 1   
    19    10    12 1   
    20    12    13 1   
    21    12    21 1   
    22    12    22 1   
    23    13    14 1   
    24    13    23 1   
    25    14    24 1   
    26    14    25 1   
    27    14    26 1   
@<TRIPOS>SUBSTRUCTURE
     1 D2G         1 TEMP              0 ****  ****    0 ROOT
