@<TRIPOS>MOLECULE
D2G
   26    27     1     0     0
SMALL
No Charge or Current Charge


@<TRIPOS>ATOM
      1 C_1         -1.6570     0.0660     0.0710 ca         1 D2G      -0.169500
      2 C_2         -1.9320    -1.2800    -0.2450 ca         1 D2G      -0.055000
      3 C_3         -3.2600    -1.7300    -0.1690 ca         1 D2G      -0.165000
      4 C_4         -4.2670    -0.8320     0.2170 ca         1 D2G       0.338900
      5 N_1         -4.0180     0.4610     0.5230 nb         1 D2G      -0.665000
      6 C_5         -2.7360     0.8930     0.4490 ca         1 D2G       0.352900
      7 C_6         -0.2860     0.5770     0.0050 cc         1 D2G       0.188500
      8 C_7          0.1180     1.8560     0.2760 cd         1 D2G      -0.162000
      9 C_8          1.5160     1.8690     0.0760 cd         1 D2G      -0.169000
     10 C_9          1.8890     0.6050    -0.3050 cc         1 D2G       0.142300
     11 O_1          0.7790    -0.2130    -0.3550 os         1 D2G      -0.246000
     12 C10          3.2440     0.0350    -0.6520 c3         1 D2G       0.127500
     13 N_2          3.8720    -0.6400     0.5100 n7         1 D2G      -0.849400
     14 C11          5.1940    -1.2420     0.2480 c3         1 D2G       0.140100
     15 H_2         -1.1400    -1.9640    -0.5430 ha         1 D2G       0.129000
     16 H_3         -3.5120    -2.7600    -0.4050 ha         1 D2G       0.125000
     17 H_4         -5.3050    -1.1570     0.2840 h4         1 D2G       0.021100
     18 H_5         -2.5830     1.9400     0.7050 h4         1 D2G       0.021100
     19 H_7         -0.4990     2.6930     0.5830 ha         1 D2G       0.143000
     20 H_8          2.1810     2.7170     0.2000 ha         1 D2G       0.144000
     21 H101         3.8840     0.8530    -1.0110 h1         1 D2G       0.048200
     22 H102         3.1200    -0.6710    -1.4850 h1         1 D2G       0.048200
     23 H1           3.2360    -1.3860     0.8260 hn         1 D2G       0.414000
     24 H111         5.5920    -1.7110     1.1580 h1         1 D2G       0.032033
     25 H112         5.1270    -2.0130    -0.5310 h1         1 D2G       0.032033
     26 H113         5.9120    -0.4790    -0.0830 h1         1 D2G       0.032033
@<TRIPOS>BOND
     1     1     2 ar  
     2     1     6 ar  
     3     1     7 1   
     4     2     3 ar  
     5     2    15 1   
     6     3     4 ar  
     7     3    16 1   
     8     4     5 ar  
     9     4    17 1   
    10     5     6 ar  
    11     6    18 1   
    12     7     8 2   
    13     7    11 1   
    14     8     9 1   
    15     8    19 1   
    16     9    10 2   
    17     9    20 1   
    18    10    11 1   
    19    10    12 1   
    20    12    13 1   
    21    12    21 1   
    22    12    22 1   
    23    13    14 1   
    24    13    23 1   
    25    14    24 1   
    26    14    25 1   
    27    14    26 1   
@<TRIPOS>SUBSTRUCTURE
     1 D2G         1 TEMP              0 ****  ****    0 ROOT
