@<TRIPOS>MOLECULE
D2I
   51    52     1     0     0
SMALL
abcg2


@<TRIPOS>ATOM
      1 C15        -25.7030   -33.2290    24.0910 c3         1 D2I       0.150900
      2 O          -24.7220   -32.2270    23.8260 os         1 D2I      -0.432100
      3 C14        -24.5830   -31.8160    22.5770 c          1 D2I       0.593100
      4 C3         -23.6480   -29.9160    21.2060 c6         1 D2I      -0.056400
      5 C2         -24.2390   -28.5470    21.6020 c6         1 D2I      -0.234700
      6 C16        -24.8900   -27.7370    20.4970 c          1 D2I       0.625100
      7 C17        -25.2910   -27.7330    18.0770 c3         1 D2I       0.208000
      8 C18        -24.9490   -28.7950    17.0410 c3         1 D2I      -0.107767
      9 C19        -24.5180   -26.4540    17.7830 c3         1 D2I      -0.107767
     10 C20        -26.7950   -27.5000    18.1090 c3         1 D2I      -0.107767
     11 C1         -25.1560   -28.7390    22.7930 c          1 D2I       0.585100
     12 C6         -24.4130   -29.1970    24.0220 c6         1 D2I      -0.186400
     13 C5         -23.1670   -30.0180    23.6670 c6         1 D2I      -0.055400
     14 C4         -23.4040   -30.8570    22.4080 c6         1 D2I      -0.102000
     15 C7         -22.1670   -31.7280    22.0520 c3         1 D2I      -0.023100
     16 C8         -21.8650   -32.8690    22.9810 ca         1 D2I      -0.083300
     17 C9         -22.3700   -34.1430    22.7240 ca         1 D2I      -0.102500
     18 C10        -22.1140   -35.2000    23.5850 ca         1 D2I      -0.109500
     19 C11        -21.3360   -35.0020    24.7180 ca         1 D2I      -0.106000
     20 C12        -20.8140   -33.7420    24.9780 ca         1 D2I      -0.109500
     21 C13        -21.0740   -32.6870    24.1140 ca         1 D2I      -0.102500
     22 O1         -25.2780   -32.2100    21.6730 o          1 D2I      -0.484000
     23 O2         -25.3580   -26.6470    20.7090 o          1 D2I      -0.485000
     24 O3         -24.8340   -28.3370    19.3270 os         1 D2I      -0.459100
     25 O4         -26.3510   -28.5810    22.7540 o          1 D2I      -0.486100
     26 H1         -25.6470   -33.4270    25.1570 h1         1 D2I       0.049033
     27 H2         -26.7060   -32.8820    23.8400 h1         1 D2I       0.049033
     28 H3         -25.4890   -34.1450    23.5410 h1         1 D2I       0.049033
     29 H4         -24.2880   -30.4140    20.4820 hc         1 D2I       0.074200
     30 H5         -22.6950   -29.7340    20.7090 hc         1 D2I       0.074200
     31 H6         -23.4120   -27.9220    21.9610 hc         1 D2I       0.085700
     32 H7         -25.4720   -29.7310    17.2430 hc         1 D2I       0.049811
     33 H8         -25.2470   -28.4510    16.0510 hc         1 D2I       0.049811
     34 H9         -23.8770   -28.9950    17.0170 hc         1 D2I       0.049811
     35 H10        -24.7740   -25.6420    18.4590 hc         1 D2I       0.049811
     36 H11        -23.4420   -26.6270    17.8310 hc         1 D2I       0.049811
     37 H12        -24.7540   -26.1270    16.7690 hc         1 D2I       0.049811
     38 H13        -27.0820   -26.7150    18.8050 hc         1 D2I       0.049811
     39 H14        -27.1280   -27.2020    17.1140 hc         1 D2I       0.049811
     40 H15        -27.3260   -28.4160    18.3740 hc         1 D2I       0.049811
     41 H16        -24.1140   -28.2930    24.5650 hc         1 D2I       0.077700
     42 H17        -25.0950   -29.7400    24.6760 hc         1 D2I       0.077700
     43 H18        -22.8720   -30.6280    24.5200 hc         1 D2I       0.056700
     44 H19        -22.3230   -29.3540    23.4640 hc         1 D2I       0.056700
     45 H20        -22.3060   -32.1140    21.0390 hc         1 D2I       0.057700
     46 H21        -21.3120   -31.0470    22.0090 hc         1 D2I       0.057700
     47 H22        -22.9730   -34.3110    21.8380 ha         1 D2I       0.112500
     48 H23        -22.5170   -36.1810    23.3670 ha         1 D2I       0.113000
     49 H24        -21.1320   -35.8260    25.3910 ha         1 D2I       0.113000
     50 H25        -20.1960   -33.5800    25.8520 ha         1 D2I       0.113000
     51 H26        -20.6510   -31.7110    24.3200 ha         1 D2I       0.112500
@<TRIPOS>BOND
     1     1     2 1   
     2     1    26 1   
     3     1    27 1   
     4     1    28 1   
     5     2     3 1   
     6     3    14 1   
     7     3    22 2   
     8     4     5 1   
     9     4    14 1   
    10     4    29 1   
    11     4    30 1   
    12     5     6 1   
    13     5    11 1   
    14     5    31 1   
    15     6    23 2   
    16     6    24 1   
    17     7     8 1   
    18     7     9 1   
    19     7    10 1   
    20     7    24 1   
    21     8    32 1   
    22     8    33 1   
    23     8    34 1   
    24     9    35 1   
    25     9    36 1   
    26     9    37 1   
    27    10    38 1   
    28    10    39 1   
    29    10    40 1   
    30    11    12 1   
    31    11    25 2   
    32    12    13 1   
    33    12    41 1   
    34    12    42 1   
    35    13    14 1   
    36    13    43 1   
    37    13    44 1   
    38    14    15 1   
    39    15    16 1   
    40    15    45 1   
    41    15    46 1   
    42    16    17 ar  
    43    16    21 ar  
    44    17    18 ar  
    45    17    47 1   
    46    18    19 ar  
    47    18    48 1   
    48    19    20 ar  
    49    19    49 1   
    50    20    21 ar  
    51    20    50 1   
    52    21    51 1   
@<TRIPOS>SUBSTRUCTURE
     1 D2I         1 TEMP              0 ****  ****    0 ROOT
