@<TRIPOS>MOLECULE
D2I
   51    52     1     0     0
SMALL
No Charge or Current Charge


@<TRIPOS>ATOM
      1 C15        -27.1870   -31.8750    23.8580 c3         1 D2I       0.150900
      2 O          -25.9810   -31.2770    23.3500 os         1 D2I      -0.432100
      3 C14        -24.9450   -32.0980    22.9830 c          1 D2I       0.593100
      4 C3         -24.1370   -30.3640    21.2620 c6         1 D2I      -0.056400
      5 C2         -24.4260   -28.8700    21.6500 c6         1 D2I      -0.234700
      6 C16        -25.2060   -28.1220    20.5670 c          1 D2I       0.625100
      7 C17        -25.0640   -27.5280    18.1590 c3         1 D2I       0.208000
      8 C18        -23.9750   -27.7960    17.0970 c3         1 D2I      -0.107767
      9 C19        -25.2290   -26.0010    18.3730 c3         1 D2I      -0.107767
     10 C20        -26.3830   -28.2340    17.7520 c3         1 D2I      -0.107767
     11 C1         -24.8110   -28.6580    23.1140 c          1 D2I       0.585100
     12 C6         -23.8840   -29.3350    24.1290 c6         1 D2I      -0.186400
     13 C5         -23.0020   -30.4700    23.5390 c6         1 D2I      -0.055400
     14 C4         -23.6840   -31.3400    22.4250 c6         1 D2I      -0.102000
     15 C7         -22.6550   -32.3860    21.8250 c3         1 D2I      -0.023100
     16 C8         -21.8590   -33.2450    22.8160 ca         1 D2I      -0.083300
     17 C9         -22.2390   -34.5770    23.0820 ca         1 D2I      -0.102500
     18 C10        -21.4910   -35.3700    23.9700 ca         1 D2I      -0.109500
     19 C11        -20.3460   -34.8450    24.5890 ca         1 D2I      -0.106000
     20 C12        -19.9420   -33.5300    24.3090 ca         1 D2I      -0.109500
     21 C13        -20.6900   -32.7380    23.4200 ca         1 D2I      -0.102500
     22 O1         -25.0280   -33.3170    23.0440 o          1 D2I      -0.484000
     23 O2         -26.3010   -27.6130    20.7520 o          1 D2I      -0.485000
     24 O3         -24.5390   -28.1360    19.3630 os         1 D2I      -0.459100
     25 O4         -25.8070   -28.0510    23.4810 o          1 D2I      -0.486100
     26 H1         -27.9200   -31.0990    24.1110 h1         1 D2I       0.049033
     27 H2         -27.6400   -32.5400    23.1110 h1         1 D2I       0.049033
     28 H3         -26.9820   -32.4580    24.7650 h1         1 D2I       0.049033
     29 H4         -25.0360   -30.7860    20.7870 hc         1 D2I       0.074200
     30 H5         -23.3920   -30.3620    20.4530 hc         1 D2I       0.074200
     31 H6         -23.3940   -28.5030    21.5720 hc         1 D2I       0.085700
     32 H7         -23.8140   -28.8730    16.9670 hc         1 D2I       0.049811
     33 H8         -24.2650   -27.3770    16.1260 hc         1 D2I       0.049811
     34 H9         -23.0220   -27.3410    17.3930 hc         1 D2I       0.049811
     35 H10        -26.0840   -25.7660    19.0160 hc         1 D2I       0.049811
     36 H11        -24.3270   -25.5720    18.8250 hc         1 D2I       0.049811
     37 H12        -25.3980   -25.4980    17.4130 hc         1 D2I       0.049811
     38 H13        -27.2170   -27.9550    18.4040 hc         1 D2I       0.049811
     39 H14        -26.6650   -27.9540    16.7300 hc         1 D2I       0.049811
     40 H15        -26.2670   -29.3240    17.7840 hc         1 D2I       0.049811
     41 H16        -23.2210   -28.5510    24.5180 hc         1 D2I       0.077700
     42 H17        -24.4850   -29.6680    24.9850 hc         1 D2I       0.077700
     43 H18        -22.6710   -31.1090    24.3690 hc         1 D2I       0.056700
     44 H19        -22.0880   -30.0200    23.1250 hc         1 D2I       0.056700
     45 H20        -23.1720   -33.0360    21.1070 hc         1 D2I       0.057700
     46 H21        -21.9160   -31.8490    21.2170 hc         1 D2I       0.057700
     47 H22        -23.1130   -35.0060    22.5980 ha         1 D2I       0.112500
     48 H23        -21.7980   -36.3940    24.1740 ha         1 D2I       0.113000
     49 H24        -19.7660   -35.4590    25.2750 ha         1 D2I       0.113000
     50 H25        -19.0470   -33.1250    24.7760 ha         1 D2I       0.113000
     51 H26        -20.3560   -31.7260    23.2020 ha         1 D2I       0.112500
@<TRIPOS>BOND
     1     1     2 1   
     2     1    26 1   
     3     1    27 1   
     4     1    28 1   
     5     2     3 1   
     6     3    14 1   
     7     3    22 2   
     8     4     5 1   
     9     4    14 1   
    10     4    29 1   
    11     4    30 1   
    12     5     6 1   
    13     5    11 1   
    14     5    31 1   
    15     6    23 2   
    16     6    24 1   
    17     7     8 1   
    18     7     9 1   
    19     7    10 1   
    20     7    24 1   
    21     8    32 1   
    22     8    33 1   
    23     8    34 1   
    24     9    35 1   
    25     9    36 1   
    26     9    37 1   
    27    10    38 1   
    28    10    39 1   
    29    10    40 1   
    30    11    12 1   
    31    11    25 2   
    32    12    13 1   
    33    12    41 1   
    34    12    42 1   
    35    13    14 1   
    36    13    43 1   
    37    13    44 1   
    38    14    15 1   
    39    15    16 1   
    40    15    45 1   
    41    15    46 1   
    42    16    17 ar  
    43    16    21 ar  
    44    17    18 ar  
    45    17    47 1   
    46    18    19 ar  
    47    18    48 1   
    48    19    20 ar  
    49    19    49 1   
    50    20    21 ar  
    51    20    50 1   
    52    21    51 1   
@<TRIPOS>SUBSTRUCTURE
     1 D2I         1 TEMP              0 ****  ****    0 ROOT
