@<TRIPOS>MOLECULE
D2J
   57    59     1     0     0
SMALL
No Charge or Current Charge


@<TRIPOS>ATOM
      1 N1          -5.6200    -2.9320    -0.7200 nb         1 D2J      -0.357000
      2 C2          -6.6410    -2.0900    -0.7820 ca         1 D2J       0.429900
      3 N3          -6.6740    -0.8200    -0.3840 nb         1 D2J      -0.277000
      4 C4          -5.5570    -0.2990     0.1640 ca         1 D2J       0.140000
      5 C5          -4.3900    -1.1150     0.3150 ca         1 D2J      -0.266000
      6 C6          -4.5040    -2.4470    -0.1800 ca         1 D2J       0.443900
      7 NAC         -7.7770    -2.5820    -1.3230 nv         1 D2J      -1.062900
      8 NAD         -3.5130    -3.3690    -0.2310 nv         1 D2J      -1.065900
      9 OAE         10.5050    -0.6700     1.1640 o          1 D2J      -0.741500
     10 OAF          9.9320    -2.4800     0.1490 o          1 D2J      -0.741500
     11 CAG          1.2290     2.1370    -0.8830 ca         1 D2J      -0.163000
     12 CAH         -0.0220     2.7080    -1.1750 ca         1 D2J      -0.159000
     13 CAI         -4.4640     1.5300     1.0860 ca         1 D2J       0.148900
     14 CAJ          0.3330     1.2500     1.1950 ca         1 D2J      -0.120000
     15 CAK          6.2470     0.2130    -0.2900 c3         1 D2J      -0.079400
     16 CAL          4.9280     0.1800     0.5140 c3         1 D2J      -0.082400
     17 CAM          7.4000    -0.5430     0.4070 c3         1 D2J      -0.053400
     18 CAN          3.7810     0.9350    -0.1840 c3         1 D2J       0.159600
     19 CAO          8.7230    -0.5110    -0.3970 c3         1 D2J      -0.204400
     20 NAQ         -5.5640     0.9870     0.5530 nb         1 D2J      -0.155000
     21 CAV          9.8220    -1.2810     0.3560 c          1 D2J       0.717000
     22 CAY         -3.2240    -0.5490     0.9340 ca         1 D2J       0.035700
     23 CAZ          1.4100     1.4080     0.3100 ca         1 D2J       0.125100
     24 CBA         -3.2710     0.8250     1.2970 ca         1 D2J      -0.171300
     25 CBB         -0.9330     1.8020     0.9070 ca         1 D2J      -0.081300
     26 CBC         -1.1080     2.5490    -0.2830 ca         1 D2J       0.101100
     27 HAA         -3.6630     4.2110    -1.7300 h1         1 D2J       0.037367
     28 HAAA        -1.9710     4.7420    -1.8090 h1         1 D2J       0.037367
     29 HAAB        -2.4780     3.2370    -2.6240 h1         1 D2J       0.037367
     30 HAB         -1.3820    -1.5610     0.3260 hc         1 D2J       0.054033
     31 HABA        -1.2870    -0.8820     1.9450 hc         1 D2J       0.054033
     32 HABB        -2.2080    -2.3210     1.7180 hc         1 D2J       0.054033
     33 HNAC        -7.8580    -3.5910    -1.4200 hn         1 D2J       0.491000
     34 HNAA        -8.6410    -2.0650    -1.1810 hn         1 D2J       0.491000
     35 HNAD        -2.5570    -3.0410    -0.1800 hn         1 D2J       0.493500
     36 HNAB        -3.6760    -4.1970    -0.7980 hn         1 D2J       0.493500
     37 HAG          2.0430     2.2780    -1.5880 ha         1 D2J       0.122000
     38 HAH         -0.1280     3.2730    -2.0960 ha         1 D2J       0.113000
     39 HAI         -4.5460     2.5810     1.3560 h4         1 D2J       0.019100
     40 HAJ          0.4900     0.6920     2.1140 ha         1 D2J       0.125000
     41 HAK          6.0740    -0.2260    -1.2810 hc         1 D2J       0.026200
     42 HAKA         6.5440     1.2570    -0.4490 hc         1 D2J       0.026200
     43 HAL          4.6250    -0.8630     0.6710 hc         1 D2J       0.051700
     44 HALA         5.0960     0.6210     1.5040 hc         1 D2J       0.051700
     45 HAM          7.5700    -0.1050     1.3990 hc         1 D2J       0.040700
     46 HAMA         7.1010    -1.5870     0.5670 hc         1 D2J       0.040700
     47 HAN          4.0660     1.9860    -0.3250 h1         1 D2J       0.028700
     48 HANA         3.5910     0.4850    -1.1670 h1         1 D2J       0.028700
     49 HAO          8.5030    -0.9960    -1.3570 hc         1 D2J       0.014700
     50 HAOA         8.9920     0.5490    -0.4900 hc         1 D2J       0.014700
     51 HAP         -2.4230     2.5910     2.2330 hc         1 D2J       0.053700
     52 HAPA        -1.7410     1.1140     2.8130 hc         1 D2J       0.053700
     53 CAB         -1.9610    -1.3680     1.2370 c3         1 D2J      -0.070800
     54 CAP         -2.0880     1.6030     1.8950 c3         1 D2J       0.039200
     55 CAA         -2.6230     3.8630    -1.7340 c3         1 D2J       0.149900
     56 OAU          2.6170     0.8340     0.6540 os         1 D2J      -0.348100
     57 OAT         -2.3420     3.1190    -0.5360 os         1 D2J      -0.344100
@<TRIPOS>BOND
     1     1     2 ar  
     2     1     6 ar  
     3     2     3 ar  
     4     2     7 1   
     5     3     4 ar  
     6     4     5 ar  
     7     4    20 ar  
     8     5     6 ar  
     9     5    22 ar  
    10     6     8 1   
    11     7    33 1   
    12     7    34 1   
    13     8    35 1   
    14     8    36 1   
    15     9    21 1   
    16    10    21 1   
    17    11    12 ar  
    18    11    23 ar  
    19    11    37 1   
    20    12    26 ar  
    21    12    38 1   
    22    13    20 ar  
    23    13    24 ar  
    24    13    39 1   
    25    14    23 ar  
    26    14    25 ar  
    27    14    40 1   
    28    15    16 1   
    29    15    17 1   
    30    15    41 1   
    31    15    42 1   
    32    16    18 1   
    33    16    43 1   
    34    16    44 1   
    35    17    19 1   
    36    17    45 1   
    37    17    46 1   
    38    18    47 1   
    39    18    48 1   
    40    18    56 1   
    41    19    21 1   
    42    19    49 1   
    43    19    50 1   
    44    22    24 ar  
    45    22    53 1   
    46    23    56 1   
    47    24    54 1   
    48    25    26 ar  
    49    25    54 1   
    50    26    57 1   
    51    27    55 1   
    52    28    55 1   
    53    29    55 1   
    54    30    53 1   
    55    31    53 1   
    56    32    53 1   
    57    51    54 1   
    58    52    54 1   
    59    55    57 1   
@<TRIPOS>SUBSTRUCTURE
     1 D2J         1 TEMP              0 ****  ****    0 ROOT
