@<TRIPOS>MOLECULE
D2J
   57    59     1     0     0
SMALL
abcg2


@<TRIPOS>ATOM
      1 N1          -5.3850    -2.9450    -0.7260 nb         1 D2J      -0.357000
      2 C2          -6.4840    -2.1710    -0.7440 ca         1 D2J       0.429900
      3 N3          -6.5450    -0.8960    -0.4200 nb         1 D2J      -0.277000
      4 C4          -5.4210    -0.3480     0.0730 ca         1 D2J       0.140000
      5 C5          -4.2190    -1.0810     0.2580 ca         1 D2J      -0.266000
      6 C6          -4.2630    -2.4240    -0.2770 ca         1 D2J       0.443900
      7 NAC         -7.6070    -2.7640    -1.1980 nv         1 D2J      -1.062900
      8 NAD         -3.1800    -3.2130    -0.3580 nv         1 D2J      -1.065900
      9 OAE          9.6600    -1.6320     1.3270 o          1 D2J      -0.741500
     10 OAF         10.5010    -1.8070    -0.7270 o          1 D2J      -0.741500
     11 CAG          1.2510     2.1990    -0.7790 ca         1 D2J      -0.163000
     12 CAH          0.0100     2.7350    -1.1230 ca         1 D2J      -0.159000
     13 CAI         -4.4510     1.5250     0.9220 ca         1 D2J       0.148900
     14 CAJ          0.2950     1.3790     1.2590 ca         1 D2J      -0.120000
     15 CAK          6.0410     0.1420    -0.2310 c3         1 D2J      -0.079400
     16 CAL          4.8180     0.2440     0.6730 c3         1 D2J      -0.082400
     17 CAM          7.2030    -0.5910     0.4280 c3         1 D2J      -0.053400
     18 CAN          3.6820     0.9780    -0.0080 c3         1 D2J       0.159600
     19 CAO          8.4040    -0.7270    -0.4930 c3         1 D2J      -0.204400
     20 NAQ         -5.5080     0.9520     0.4050 nb         1 D2J      -0.155000
     21 CAV          9.6240    -1.4580     0.0930 c          1 D2J       0.717000
     22 CAY         -3.1270    -0.4610     0.9150 ca         1 D2J       0.035700
     23 CAZ          1.4040     1.5220     0.4200 ca         1 D2J       0.125100
     24 CBA         -3.2380     0.8890     1.2180 ca         1 D2J      -0.171300
     25 CBB         -0.9440     1.8930     0.9260 ca         1 D2J      -0.081300
     26 CBC         -1.0830     2.5950    -0.2830 ca         1 D2J       0.101100
     27 HAA         -3.5720     4.0640    -1.7710 h1         1 D2J       0.037367
     28 HAAA        -1.9050     4.6600    -1.8610 h1         1 D2J       0.037367
     29 HAAB        -2.3380     3.1120    -2.6170 h1         1 D2J       0.037367
     30 HAB         -1.1660    -1.3040     0.5430 hc         1 D2J       0.054033
     31 HABA        -1.4070    -0.7200     2.1700 hc         1 D2J       0.054033
     32 HABB        -2.1540    -2.2210     1.6900 hc         1 D2J       0.054033
     33 HNAC        -7.6300    -3.7670    -1.2670 hn         1 D2J       0.491000
     34 HNAA        -8.4860    -2.2970    -1.0600 hn         1 D2J       0.491000
     35 HNAD        -2.2500    -2.8410    -0.3190 hn         1 D2J       0.493500
     36 HNAB        -3.2860    -4.0750    -0.8700 hn         1 D2J       0.493500
     37 HAG          2.0740     2.3340    -1.4670 ha         1 D2J       0.122000
     38 HAH         -0.0690     3.2670    -2.0620 ha         1 D2J       0.113000
     39 HAI         -4.5530     2.5790     1.1650 h4         1 D2J       0.019100
     40 HAJ          0.4110     0.8390     2.1920 ha         1 D2J       0.125000
     41 HAK          5.7650    -0.3710    -1.1580 hc         1 D2J       0.026200
     42 HAKA         6.3660     1.1460    -0.5260 hc         1 D2J       0.026200
     43 HAL          4.4860    -0.7600     0.9510 hc         1 D2J       0.051700
     44 HALA         5.0860     0.7600     1.6000 hc         1 D2J       0.051700
     45 HAM          7.4930    -0.0640     1.3410 hc         1 D2J       0.040700
     46 HAMA         6.8660    -1.5830     0.7470 hc         1 D2J       0.040700
     47 HAN          3.9820     2.0060    -0.2440 h1         1 D2J       0.028700
     48 HANA         3.4320     0.4860    -0.9560 h1         1 D2J       0.028700
     49 HAO          8.1050    -1.2290    -1.4200 hc         1 D2J       0.014700
     50 HAOA         8.7340     0.2720    -0.8070 hc         1 D2J       0.014700
     51 HAP         -2.5350     2.6770     2.1240 hc         1 D2J       0.053700
     52 HAPA        -1.7870     1.2450     2.7720 hc         1 D2J       0.053700
     53 CAB         -1.9050    -1.2200     1.3450 c3         1 D2J      -0.070800
     54 CAP         -2.1300     1.7020     1.8400 c3         1 D2J       0.039200
     55 CAA         -2.5260     3.7650    -1.7610 c3         1 D2J       0.149900
     56 OAU          2.5590     0.9720     0.8570 os         1 D2J      -0.348100
     57 OAT         -2.3090     3.1030    -0.5350 os         1 D2J      -0.344100
@<TRIPOS>BOND
     1     1     2 ar  
     2     1     6 ar  
     3     2     3 ar  
     4     2     7 1   
     5     3     4 ar  
     6     4     5 ar  
     7     4    20 ar  
     8     5     6 ar  
     9     5    22 ar  
    10     6     8 1   
    11     7    33 1   
    12     7    34 1   
    13     8    35 1   
    14     8    36 1   
    15     9    21 1   
    16    10    21 1   
    17    11    12 ar  
    18    11    23 ar  
    19    11    37 1   
    20    12    26 ar  
    21    12    38 1   
    22    13    20 ar  
    23    13    24 ar  
    24    13    39 1   
    25    14    23 ar  
    26    14    25 ar  
    27    14    40 1   
    28    15    16 1   
    29    15    17 1   
    30    15    41 1   
    31    15    42 1   
    32    16    18 1   
    33    16    43 1   
    34    16    44 1   
    35    17    19 1   
    36    17    45 1   
    37    17    46 1   
    38    18    47 1   
    39    18    48 1   
    40    18    56 1   
    41    19    21 1   
    42    19    49 1   
    43    19    50 1   
    44    22    24 ar  
    45    22    53 1   
    46    23    56 1   
    47    24    54 1   
    48    25    26 ar  
    49    25    54 1   
    50    26    57 1   
    51    27    55 1   
    52    28    55 1   
    53    29    55 1   
    54    30    53 1   
    55    31    53 1   
    56    32    53 1   
    57    51    54 1   
    58    52    54 1   
    59    55    57 1   
@<TRIPOS>SUBSTRUCTURE
     1 D2J         1 TEMP              0 ****  ****    0 ROOT
