@<TRIPOS>MOLECULE
D2K
   58    60     1     0     0
SMALL
bcc


@<TRIPOS>ATOM
      1 N1          -5.5050    -2.8070    -0.6820 nb         1 D2K      -0.883000
      2 C2          -6.5690    -1.9840    -0.6600 ca         1 D2K       0.971900
      3 N3          -6.5610    -0.7080    -0.3280 nb         1 D2K      -0.805000
      4 C4          -5.3980    -0.2180     0.1340 ca         1 D2K       0.736300
      5 C5          -4.2280    -1.0070     0.2820 ca         1 D2K      -0.401600
      6 C6          -4.3490    -2.3430    -0.2620 ca         1 D2K       0.771200
      7 CAA         10.5900    -1.4400    -0.9640 c3         1 D2K      -0.098100
      8 NAD         -7.7350    -2.5310    -1.0400 nv         1 D2K      -0.968500
      9 NAE         -3.3060    -3.1790    -0.3840 nv         1 D2K      -0.956500
     10 OAF          7.2990    -1.2300     1.5600 o          1 D2K      -0.535000
     11 CAG          1.4000     1.9960    -0.8310 ca         1 D2K      -0.179000
     12 CAH          0.1780     2.5800    -1.1660 ca         1 D2K      -0.180000
     13 CAI         -4.3160     1.6030     0.9620 ca         1 D2K       0.478200
     14 CAJ          0.4330     1.2300     1.2230 ca         1 D2K      -0.131000
     15 CAK          9.5540    -1.4800     0.1320 c3         1 D2K       0.145400
     16 CAL          4.9230     0.0010     0.6640 c3         1 D2K      -0.074400
     17 CAM          3.8040     0.7330    -0.0480 c3         1 D2K       0.141400
     18 CAN          6.1550    -0.0800    -0.2220 c3         1 D2K      -0.139400
     19 NAP         -5.4120     1.0850     0.4710 nb         1 D2K      -0.676000
     20 OAS         -2.1150     3.0540    -0.5520 os         1 D2K      -0.313900
     21 OAT          8.3630    -0.8480    -0.3640 os         1 D2K      -0.431900
     22 CAV          7.3110    -0.7820     0.4400 c          1 D2K       0.643100
     23 CAX          1.5370     1.3230     0.3720 ca         1 D2K       0.107100
     24 CAZ         -3.0900    -0.4440     0.9130 ca         1 D2K       0.035700
     25 CBA         -3.1290     0.9070     1.2260 ca         1 D2K      -0.244600
     26 CBB         -0.7880     1.7920     0.8990 ca         1 D2K      -0.075300
     27 CBC         -0.9110     2.4930    -0.3120 ca         1 D2K       0.115100
     28 HAA         10.2560    -1.9760    -1.8530 hc         1 D2K       0.047367
     29 HAAA        10.8380    -0.4170    -1.2470 hc         1 D2K       0.047367
     30 HAAB        11.5030    -1.9190    -0.6110 hc         1 D2K       0.047367
     31 HAB         -1.6530     4.5770    -1.8980 h1         1 D2K       0.040700
     32 HABA        -2.1780     3.0490    -2.6340 h1         1 D2K       0.040700
     33 HABB        -3.3470     4.0690    -1.7760 h1         1 D2K       0.040700
     34 HAC         -1.1760    -1.3680     0.4920 hc         1 D2K       0.051700
     35 HACA        -1.3610    -0.7950     2.1300 hc         1 D2K       0.051700
     36 HACB        -2.1810    -2.2570     1.6460 hc         1 D2K       0.051700
     37 HNAD        -7.7730    -3.4840    -1.3520 hn         1 D2K       0.448800
     38 HNAA        -8.5670    -1.9710    -1.0890 hn         1 D2K       0.448800
     39 HNAE        -2.3600    -2.8470    -0.3780 hn         1 D2K       0.435300
     40 HNAB        -3.4670    -4.0260    -0.9050 hn         1 D2K       0.435300
     41 HAG          2.2200     2.0910    -1.5290 ha         1 D2K       0.133000
     42 HAH          0.1110     3.1090    -2.1070 ha         1 D2K       0.135000
     43 HAI         -4.3590     2.6600     1.2100 h4         1 D2K       0.019100
     44 HAJ          0.5370     0.6940     2.1600 ha         1 D2K       0.145000
     45 HAK          9.3310    -2.5100     0.4190 h1         1 D2K       0.048700
     46 HAKA         9.9050    -0.9530     1.0210 h1         1 D2K       0.048700
     47 HAL          5.1630     0.5200     1.5940 hc         1 D2K       0.070700
     48 HALA         4.5860    -1.0030     0.9300 hc         1 D2K       0.070700
     49 HAM          4.1110     1.7580    -0.2850 h1         1 D2K       0.031200
     50 HAMA         3.5660     0.2350    -0.9960 h1         1 D2K       0.031200
     51 HAN          5.9260    -0.6010    -1.1570 hc         1 D2K       0.071200
     52 HANA         6.4890     0.9200    -0.5170 hc         1 D2K       0.071200
     53 HAO         -2.3190     2.6530     2.1240 hc         1 D2K       0.055700
     54 HAOA        -1.6360     1.1810     2.7540 hc         1 D2K       0.055700
     55 CAC         -1.8960    -1.2630     1.3080 c3         1 D2K      -0.068800
     56 CAO         -1.9690     1.6600     1.8300 c3         1 D2K       0.039200
     57 OAU          2.6750     0.7340     0.8060 os         1 D2K      -0.323900
     58 CAB         -2.3180     3.7170    -1.7800 c3         1 D2K       0.123700
@<TRIPOS>BOND
     1     1     2 ar  
     2     1     6 ar  
     3     2     3 ar  
     4     2     8 1   
     5     3     4 ar  
     6     4     5 ar  
     7     4    19 ar  
     8     5     6 ar  
     9     5    24 ar  
    10     6     9 1   
    11     7    15 1   
    12     7    28 1   
    13     7    29 1   
    14     7    30 1   
    15     8    37 1   
    16     8    38 1   
    17     9    39 1   
    18     9    40 1   
    19    10    22 2   
    20    11    12 ar  
    21    11    23 ar  
    22    11    41 1   
    23    12    27 ar  
    24    12    42 1   
    25    13    19 ar  
    26    13    25 ar  
    27    13    43 1   
    28    14    23 ar  
    29    14    26 ar  
    30    14    44 1   
    31    15    21 1   
    32    15    45 1   
    33    15    46 1   
    34    16    17 1   
    35    16    18 1   
    36    16    47 1   
    37    16    48 1   
    38    17    49 1   
    39    17    50 1   
    40    17    57 1   
    41    18    22 1   
    42    18    51 1   
    43    18    52 1   
    44    20    27 1   
    45    20    58 1   
    46    21    22 1   
    47    23    57 1   
    48    24    25 ar  
    49    24    55 1   
    50    25    56 1   
    51    26    27 ar  
    52    26    56 1   
    53    31    58 1   
    54    32    58 1   
    55    33    58 1   
    56    34    55 1   
    57    35    55 1   
    58    36    55 1   
    59    53    56 1   
    60    54    56 1   
@<TRIPOS>SUBSTRUCTURE
     1 D2K         1 TEMP              0 ****  ****    0 ROOT
