@<TRIPOS>MOLECULE
D2K
   58    60     1     0     0
SMALL
No Charge or Current Charge


@<TRIPOS>ATOM
      1 N1          -5.0820    -3.0810    -1.0180 nb         1 D2K      -0.357000
      2 C2          -6.1640    -2.3180    -0.9960 ca         1 D2K       0.445900
      3 N3          -6.2900    -1.0970    -0.4800 nb         1 D2K      -0.279000
      4 C4          -5.2100    -0.5450     0.1080 ca         1 D2K       0.145000
      5 C5          -3.9830    -1.2780     0.1770 ca         1 D2K      -0.271000
      6 C6          -4.0000    -2.5640    -0.4400 ca         1 D2K       0.442900
      7 CAA          8.9230    -3.1850    -0.5660 c3         1 D2K      -0.098100
      8 NAD         -7.2650    -2.8440    -1.5750 nv         1 D2K      -1.078900
      9 NAE         -2.9430    -3.3980    -0.5790 nv         1 D2K      -1.066900
     10 OAF          8.3610     0.6420     1.1930 o          1 D2K      -0.486000
     11 CAG          1.3500     2.5060    -0.7440 ca         1 D2K      -0.161000
     12 CAH          0.0540     3.0000    -0.9720 ca         1 D2K      -0.162000
     13 CAI         -4.2500     1.2690     1.1930 ca         1 D2K       0.149900
     14 CAJ          0.5550     1.3600     1.2470 ca         1 D2K      -0.113000
     15 CAK          8.9360    -1.8690     0.2280 c3         1 D2K       0.168600
     16 CAL          5.2070     0.7240     0.4410 c3         1 D2K      -0.074400
     17 CAM          3.9970     1.4500    -0.1770 c3         1 D2K       0.164600
     18 CAN          6.5150     0.9340    -0.3620 c3         1 D2K      -0.139400
     19 NAP         -5.3120     0.6950     0.6170 nb         1 D2K      -0.150000
     20 OAS         -2.2830     3.1630    -0.2830 os         1 D2K      -0.337100
     21 OAT          7.8720    -1.0480    -0.2830 os         1 D2K      -0.455100
     22 CAV          7.6860     0.1870     0.2810 c          1 D2K       0.594100
     23 CAX          1.6040     1.6850     0.3740 ca         1 D2K       0.107100
     24 CAZ         -2.8550    -0.6830     0.8390 ca         1 D2K       0.035700
     25 CBA         -3.0030     0.6420     1.3300 ca         1 D2K      -0.179300
     26 CBB         -0.7550     1.8330     1.0200 ca         1 D2K      -0.075300
     27 CBC         -1.0040     2.6720    -0.0930 ca         1 D2K       0.115100
     28 HAA          7.9640    -3.7020    -0.4420 hc         1 D2K       0.047367
     29 HAAA         9.0840    -2.9930    -1.6340 hc         1 D2K       0.047367
     30 HAAB         9.7200    -3.8490    -0.2120 hc         1 D2K       0.047367
     31 HAB         -2.0580     4.9230    -1.4000 h1         1 D2K       0.040700
     32 HABA        -2.4560     3.4660    -2.3500 h1         1 D2K       0.040700
     33 HABB        -3.7020     4.2540    -1.3600 h1         1 D2K       0.040700
     34 HAC         -0.9520    -1.4920     0.1260 hc         1 D2K       0.051700
     35 HACA        -0.8820    -0.9550     1.7980 hc         1 D2K       0.051700
     36 HACB        -1.6950    -2.4340     1.4500 hc         1 D2K       0.051700
     37 HNAD        -7.2700    -3.8450    -1.7540 hn         1 D2K       0.504000
     38 HNAA        -8.1640    -2.4160    -1.3700 hn         1 D2K       0.504000
     39 HNAE        -2.0130    -3.0060    -0.4920 hn         1 D2K       0.490500
     40 HNAB        -3.0450    -4.1790    -1.2210 hn         1 D2K       0.490500
     41 HAG          2.1400     2.7760    -1.4380 ha         1 D2K       0.115000
     42 HAH         -0.1090     3.6380    -1.8350 ha         1 D2K       0.117000
     43 HAI         -4.4090     2.2810     1.5610 h4         1 D2K       0.019100
     44 HAJ          0.7680     0.7320     2.1080 ha         1 D2K       0.127000
     45 HAK          8.7880    -2.0840     1.2950 h1         1 D2K       0.048700
     46 HAKA         9.9080    -1.3750     0.1030 h1         1 D2K       0.048700
     47 HAL          5.3510     1.0820     1.4680 hc         1 D2K       0.070700
     48 HALA         4.9870    -0.3490     0.5010 hc         1 D2K       0.070700
     49 HAM          4.1980     2.5280    -0.2200 h1         1 D2K       0.031200
     50 HAMA         3.8290     1.0800    -1.1980 h1         1 D2K       0.031200
     51 HAN          6.3490     0.5400    -1.3720 hc         1 D2K       0.071200
     52 HANA         6.7470     2.0040    -0.3980 hc         1 D2K       0.071200
     53 HAO         -2.2830     2.3740     2.4250 hc         1 D2K       0.055700
     54 HAOA        -1.4800     0.9070     2.8570 hc         1 D2K       0.055700
     55 CAC         -1.5280    -1.4260     1.0560 c3         1 D2K      -0.068800
     56 CAO         -1.8760     1.4510     1.9920 c3         1 D2K       0.039200
     57 OAU          2.8570     1.1780     0.6550 os         1 D2K      -0.347100
     58 CAB         -2.6370     3.9920    -1.4040 c3         1 D2K       0.146900
@<TRIPOS>BOND
     1     1     2 ar  
     2     1     6 ar  
     3     2     3 ar  
     4     2     8 1   
     5     3     4 ar  
     6     4     5 ar  
     7     4    19 ar  
     8     5     6 ar  
     9     5    24 ar  
    10     6     9 1   
    11     7    15 1   
    12     7    28 1   
    13     7    29 1   
    14     7    30 1   
    15     8    37 1   
    16     8    38 1   
    17     9    39 1   
    18     9    40 1   
    19    10    22 2   
    20    11    12 ar  
    21    11    23 ar  
    22    11    41 1   
    23    12    27 ar  
    24    12    42 1   
    25    13    19 ar  
    26    13    25 ar  
    27    13    43 1   
    28    14    23 ar  
    29    14    26 ar  
    30    14    44 1   
    31    15    21 1   
    32    15    45 1   
    33    15    46 1   
    34    16    17 1   
    35    16    18 1   
    36    16    47 1   
    37    16    48 1   
    38    17    49 1   
    39    17    50 1   
    40    17    57 1   
    41    18    22 1   
    42    18    51 1   
    43    18    52 1   
    44    20    27 1   
    45    20    58 1   
    46    21    22 1   
    47    23    57 1   
    48    24    25 ar  
    49    24    55 1   
    50    25    56 1   
    51    26    27 ar  
    52    26    56 1   
    53    31    58 1   
    54    32    58 1   
    55    33    58 1   
    56    34    55 1   
    57    35    55 1   
    58    36    55 1   
    59    53    56 1   
    60    54    56 1   
@<TRIPOS>SUBSTRUCTURE
     1 D2K         1 TEMP              0 ****  ****    0 ROOT
