@<TRIPOS>MOLECULE
D2M
   40    41     1     0     0
SMALL
No Charge or Current Charge


@<TRIPOS>ATOM
      1 O29         -4.1430     0.4630    -1.5550 oh         1 D2M      -0.521100
      2 C28         -2.9660     0.2290    -0.8840 ca         1 D2M       0.041100
      3 C26         -2.9610     0.2810     0.5270 ca         1 D2M       0.137100
      4 O32         -4.1530     0.5660     1.1710 os         1 D2M      -0.342600
      5 C34         -4.2530     0.6440     2.6040 c3         1 D2M       0.152900
      6 C23         -1.7650     0.0450     1.2330 ca         1 D2M      -0.243500
      7 C21         -0.5810    -0.2350     0.5380 ca         1 D2M       0.184100
      8 C22         -0.5820    -0.2990    -0.8680 ca         1 D2M      -0.243500
      9 C24         -1.7730    -0.0630    -1.5870 ca         1 D2M       0.137100
     10 O31         -1.8100    -0.1100    -2.9720 os         1 D2M      -0.342600
     11 C33         -0.6430    -0.3840    -3.7670 c3         1 D2M       0.152900
     12 O20          0.5660    -0.4640     1.2660 os         1 D2M      -0.217200
     13 C3           1.8320    -0.2950     0.7370 ca         1 D2M       0.009100
     14 C4           2.6930    -1.4090     0.6390 ca         1 D2M       0.171100
     15 O10          2.2330    -2.6400     1.0760 os         1 D2M      -0.317600
     16 C11          3.0340    -3.8320     1.0060 c3         1 D2M       0.145900
     17 C5           3.9850    -1.2460     0.0950 ca         1 D2M      -0.233500
     18 C6           4.4130     0.0170    -0.3420 ca         1 D2M      -0.032000
     19 C1           3.5610     1.1270    -0.2360 ca         1 D2M      -0.233500
     20 C2           2.2650     0.9810     0.3070 ca         1 D2M       0.171100
     21 O15          1.4050     2.0570     0.4370 os         1 D2M      -0.317600
     22 C16          1.7500     3.3810    -0.0060 c3         1 D2M       0.145900
     23 HO29        -4.8330     0.6410    -0.8770 ho         1 D2M       0.469000
     24 H34         -3.9780    -0.3130     3.0670 h1         1 D2M       0.040033
     25 H34A        -3.5970     1.4290     2.9990 h1         1 D2M       0.040033
     26 H34B        -5.2830     0.8810     2.9010 h1         1 D2M       0.040033
     27 H23         -1.7300     0.0780     2.3170 ha         1 D2M       0.132000
     28 H22          0.3410    -0.5350    -1.3860 ha         1 D2M       0.132000
     29 H33         -0.2340    -1.3750    -3.5320 h1         1 D2M       0.040033
     30 H33A        -0.8980    -0.3670    -4.8340 h1         1 D2M       0.040033
     31 H33B         0.1350     0.3700    -3.5920 h1         1 D2M       0.040033
     32 H11          3.3080    -4.0570    -0.0320 h1         1 D2M       0.043367
     33 H11A         3.9520    -3.7200     1.5980 h1         1 D2M       0.043367
     34 H11B         2.4760    -4.6880     1.4040 h1         1 D2M       0.043367
     35 H5           4.6700    -2.0840     0.0020 ha         1 D2M       0.123000
     36 H6           5.4110     0.1370    -0.7610 ha         1 D2M       0.114000
     37 H1           3.9250     2.0910    -0.5780 ha         1 D2M       0.123000
     38 H16          0.9200     4.0730     0.1860 h1         1 D2M       0.043367
     39 H16A         2.6330     3.7540     0.5280 h1         1 D2M       0.043367
     40 H16B         1.9570     3.3890    -1.0840 h1         1 D2M       0.043367
@<TRIPOS>BOND
     1     1     2 1   
     2     1    23 1   
     3     2     3 ar  
     4     2     9 ar  
     5     3     4 1   
     6     3     6 ar  
     7     4     5 1   
     8     5    24 1   
     9     5    25 1   
    10     5    26 1   
    11     6     7 ar  
    12     6    27 1   
    13     7     8 ar  
    14     7    12 1   
    15     8     9 ar  
    16     8    28 1   
    17     9    10 1   
    18    10    11 1   
    19    11    29 1   
    20    11    30 1   
    21    11    31 1   
    22    12    13 1   
    23    13    14 ar  
    24    13    20 ar  
    25    14    15 1   
    26    14    17 ar  
    27    15    16 1   
    28    16    32 1   
    29    16    33 1   
    30    16    34 1   
    31    17    18 ar  
    32    17    35 1   
    33    18    19 ar  
    34    18    36 1   
    35    19    20 ar  
    36    19    37 1   
    37    20    21 1   
    38    21    22 1   
    39    22    38 1   
    40    22    39 1   
    41    22    40 1   
@<TRIPOS>SUBSTRUCTURE
     1 D2M         1 TEMP              0 ****  ****    0 ROOT
