@<TRIPOS>MOLECULE
D2M
   40    41     1     0     0
SMALL
abcg2


@<TRIPOS>ATOM
      1 O29         -4.0610    -0.2340    -1.5090 oh         1 D2M      -0.521100
      2 C28         -2.9090    -0.1410    -0.8000 ca         1 D2M       0.041100
      3 C26         -2.8950     0.0300     0.5860 ca         1 D2M       0.137100
      4 O32         -4.1180     0.1000     1.1530 os         1 D2M      -0.342600
      5 C34         -4.2100     0.2740     2.5530 c3         1 D2M       0.152900
      6 C23         -1.6970     0.1190     1.2840 ca         1 D2M      -0.243500
      7 C21         -0.5030     0.0330     0.5820 ca         1 D2M       0.184100
      8 C22         -0.4870    -0.1390    -0.7930 ca         1 D2M      -0.243500
      9 C24         -1.6970    -0.2240    -1.4810 ca         1 D2M       0.137100
     10 O31         -1.7940    -0.3890    -2.8140 os         1 D2M      -0.342600
     11 C33         -0.6050    -0.5270    -3.5640 c3         1 D2M       0.152900
     12 O20          0.6320     0.1290     1.3350 os         1 D2M      -0.217200
     13 C3           1.8450     0.0670     0.7090 ca         1 D2M       0.009100
     14 C4           2.4730    -1.1690     0.5510 ca         1 D2M       0.171100
     15 O10          1.7820    -2.2310     0.9920 os         1 D2M      -0.317600
     16 C11          2.3700    -3.5120     0.8680 c3         1 D2M       0.145900
     17 C5           3.7350    -1.2230    -0.0370 ca         1 D2M      -0.233500
     18 C6           4.3320    -0.0460    -0.4630 ca         1 D2M      -0.032000
     19 C1           3.7110     1.1860    -0.3220 ca         1 D2M      -0.233500
     20 C2           2.4490     1.2450     0.2680 ca         1 D2M       0.171100
     21 O15          1.7380     2.3660     0.4570 os         1 D2M      -0.317600
     22 C16          2.3030     3.5970     0.0470 c3         1 D2M       0.145900
     23 HO29        -4.8130    -0.1490    -0.9120 ho         1 D2M       0.469000
     24 H34         -3.7610    -0.5600     3.0970 h1         1 D2M       0.040033
     25 H34A        -3.7370     1.2050     2.8760 h1         1 D2M       0.040033
     26 H34B        -5.2700     0.3170     2.7880 h1         1 D2M       0.040033
     27 H23         -1.6750     0.2500     2.3580 ha         1 D2M       0.132000
     28 H22          0.4510    -0.2060    -1.3260 ha         1 D2M       0.132000
     29 H33         -0.0280    -1.4040    -3.2570 h1         1 D2M       0.040033
     30 H33A        -0.9070    -0.6530    -4.6010 h1         1 D2M       0.040033
     31 H33B         0.0330     0.3580    -3.4910 h1         1 D2M       0.040033
     32 H11          2.5690    -3.7700    -0.1750 h1         1 D2M       0.043367
     33 H11A         3.3000    -3.5900     1.4360 h1         1 D2M       0.043367
     34 H11B         1.6510    -4.2200     1.2730 h1         1 D2M       0.043367
     35 H5           4.2530    -2.1620    -0.1710 ha         1 D2M       0.123000
     36 H6           5.3110    -0.0910    -0.9220 ha         1 D2M       0.114000
     37 H1           4.2100     2.0790    -0.6710 ha         1 D2M       0.123000
     38 H16          1.5810     4.3670     0.3060 h1         1 D2M       0.043367
     39 H16A         3.2430     3.8070     0.5650 h1         1 D2M       0.043367
     40 H16B         2.4790     3.6270    -1.0310 h1         1 D2M       0.043367
@<TRIPOS>BOND
     1     1     2 1   
     2     1    23 1   
     3     2     3 ar  
     4     2     9 ar  
     5     3     4 1   
     6     3     6 ar  
     7     4     5 1   
     8     5    24 1   
     9     5    25 1   
    10     5    26 1   
    11     6     7 ar  
    12     6    27 1   
    13     7     8 ar  
    14     7    12 1   
    15     8     9 ar  
    16     8    28 1   
    17     9    10 1   
    18    10    11 1   
    19    11    29 1   
    20    11    30 1   
    21    11    31 1   
    22    12    13 1   
    23    13    14 ar  
    24    13    20 ar  
    25    14    15 1   
    26    14    17 ar  
    27    15    16 1   
    28    16    32 1   
    29    16    33 1   
    30    16    34 1   
    31    17    18 ar  
    32    17    35 1   
    33    18    19 ar  
    34    18    36 1   
    35    19    20 ar  
    36    19    37 1   
    37    20    21 1   
    38    21    22 1   
    39    22    38 1   
    40    22    39 1   
    41    22    40 1   
@<TRIPOS>SUBSTRUCTURE
     1 D2M         1 TEMP              0 ****  ****    0 ROOT
