@<TRIPOS>MOLECULE
D2N
   64    66     1     0     0
SMALL
abcg2


@<TRIPOS>ATOM
      1 N1           5.8720    -3.2220     0.6650 nb         1 D2N      -0.351000
      2 C2           7.0200    -2.5310     0.7690 ca         1 D2N       0.427900
      3 N3           7.1870    -1.2520     0.5030 nb         1 D2N      -0.272000
      4 C4           6.1310    -0.6060    -0.0200 ca         1 D2N       0.142000
      5 C5           4.8920    -1.2430    -0.2950 ca         1 D2N      -0.267000
      6 C6           4.8140    -2.6050     0.1840 ca         1 D2N       0.440900
      7 CAA        -12.0330    -1.4560     1.1670 c3         1 D2N      -0.097100
      8 NAD          8.0910    -3.2370     1.1890 nv         1 D2N      -1.052900
      9 NAE          3.6750    -3.3160     0.1800 nv         1 D2N      -1.064900
     10 OAF         -8.8010    -1.2680    -1.4320 o          1 D2N      -0.489000
     11 CAG         -0.3230     2.4010     0.7770 ca         1 D2N      -0.161000
     12 CAH          0.9430     2.8490     1.1530 ca         1 D2N      -0.161000
     13 CAI          5.3330     1.3690    -0.8160 ca         1 D2N       0.149900
     14 CAJ          0.6140     1.5740    -1.2670 ca         1 D2N      -0.115000
     15 CAK        -11.0200    -1.5040     0.0480 c3         1 D2N       0.167600
     16 CAL         -5.2140     0.6420     0.1070 c3         1 D2N      -0.075400
     17 CAM         -3.9740     0.6940    -0.7760 c3         1 D2N      -0.081400
     18 CAN         -6.3800    -0.0600    -0.5770 c3         1 D2N      -0.067400
     19 CAO         -2.8140     1.3630    -0.0690 c3         1 D2N       0.166600
     20 CAP         -7.5980    -0.1430     0.3280 c3         1 D2N      -0.139400
     21 NAR          6.3240     0.6990    -0.2860 nb         1 D2N      -0.148000
     22 OAU          3.2920     3.0780     0.6150 os         1 D2N      -0.339100
     23 OAV         -9.8120    -0.8880     0.5200 os         1 D2N      -0.455100
     24 CAX         -8.7780    -0.8270    -0.3100 c          1 D2N       0.593100
     25 CAZ         -0.4970     1.7630    -0.4410 ca         1 D2N       0.110100
     26 CBB          3.8770    -0.5170    -0.9670 ca         1 D2N       0.034700
     27 CBC          4.0920     0.8350    -1.1910 ca         1 D2N      -0.177300
     28 CBD          1.8770     1.9990    -0.9020 ca         1 D2N      -0.075300
     29 CBE          2.0400     2.6590     0.3280 ca         1 D2N       0.113100
     30 HAA        -12.2640    -0.4310     1.4570 hc         1 D2N       0.046367
     31 HAAA       -12.9580    -1.9240     0.8320 hc         1 D2N       0.046367
     32 HAAB       -11.6860    -1.9970     2.0470 hc         1 D2N       0.046367
     33 HAB          2.9640     4.6350     1.9610 h1         1 D2N       0.040367
     34 HABA         3.2770     3.0480     2.6970 h1         1 D2N       0.040367
     35 HABB         4.5890     3.9290     1.8940 h1         1 D2N       0.040367
     36 HAC          1.8360    -1.2120    -0.7440 hc         1 D2N       0.051700
     37 HACA         2.2290    -0.6080    -2.3350 hc         1 D2N       0.051700
     38 HACB         2.8210    -2.1760    -1.8540 hc         1 D2N       0.051700
     39 HNAD         7.9330    -4.1290     1.6260 hn         1 D2N       0.491000
     40 HNAA         8.9070    -2.7310     1.4840 hn         1 D2N       0.491000
     41 HNAE         2.7780    -2.8700     0.1230 hn         1 D2N       0.490500
     42 HNAB         3.6930    -4.1970     0.6660 hn         1 D2N       0.490500
     43 HAG         -1.1480     2.5720     1.4550 ha         1 D2N       0.116000
     44 HAH          1.0400     3.3520     2.1070 ha         1 D2N       0.117000
     45 HAI          5.5170     2.4230    -1.0020 h4         1 D2N       0.021100
     46 HAJ          0.4790     1.0690    -2.2170 ha         1 D2N       0.125000
     47 HAK        -10.8180    -2.5350    -0.2480 h1         1 D2N       0.048700
     48 HAKA       -11.3860    -0.9700    -0.8310 h1         1 D2N       0.048700
     49 HAL         -4.9740     0.1240     1.0410 hc         1 D2N       0.038700
     50 HALA        -5.5130     1.6570     0.3880 hc         1 D2N       0.038700
     51 HAM         -3.6840    -0.3240    -1.0560 hc         1 D2N       0.057700
     52 HAMA        -4.2020     1.2270    -1.7040 hc         1 D2N       0.057700
     53 HAN         -6.6360     0.4720    -1.4970 hc         1 D2N       0.057200
     54 HANA        -6.0710    -1.0650    -0.8760 hc         1 D2N       0.057200
     55 HAO         -3.0580     2.4080     0.1620 h1         1 D2N       0.031200
     56 HAOA        -2.6140     0.8580     0.8840 h1         1 D2N       0.031200
     57 HAP         -7.3520    -0.6720     1.2540 hc         1 D2N       0.070700
     58 HAPA        -7.9150     0.8580     0.6400 hc         1 D2N       0.070700
     59 HAQ          3.5480     2.7070    -2.0390 hc         1 D2N       0.055700
     60 HAQA         2.7080     1.3630    -2.7570 hc         1 D2N       0.055700
     61 CAC          2.6300    -1.1680    -1.4940 c3         1 D2N      -0.068800
     62 CAQ          3.0650     1.7560    -1.8020 c3         1 D2N       0.038200
     63 OAW         -1.6750     1.2920    -0.9080 os         1 D2N      -0.350100
     64 CAB          3.5260     3.7020     1.8570 c3         1 D2N       0.147900
@<TRIPOS>BOND
     1     1     2 ar  
     2     1     6 ar  
     3     2     3 ar  
     4     2     8 1   
     5     3     4 ar  
     6     4     5 ar  
     7     4    21 ar  
     8     5     6 ar  
     9     5    26 ar  
    10     6     9 1   
    11     7    15 1   
    12     7    30 1   
    13     7    31 1   
    14     7    32 1   
    15     8    39 1   
    16     8    40 1   
    17     9    41 1   
    18     9    42 1   
    19    10    24 2   
    20    11    12 ar  
    21    11    25 ar  
    22    11    43 1   
    23    12    29 ar  
    24    12    44 1   
    25    13    21 ar  
    26    13    27 ar  
    27    13    45 1   
    28    14    25 ar  
    29    14    28 ar  
    30    14    46 1   
    31    15    23 1   
    32    15    47 1   
    33    15    48 1   
    34    16    17 1   
    35    16    18 1   
    36    16    49 1   
    37    16    50 1   
    38    17    19 1   
    39    17    51 1   
    40    17    52 1   
    41    18    20 1   
    42    18    53 1   
    43    18    54 1   
    44    19    55 1   
    45    19    56 1   
    46    19    63 1   
    47    20    24 1   
    48    20    57 1   
    49    20    58 1   
    50    22    29 1   
    51    22    64 1   
    52    23    24 1   
    53    25    63 1   
    54    26    27 ar  
    55    26    61 1   
    56    27    62 1   
    57    28    29 ar  
    58    28    62 1   
    59    33    64 1   
    60    34    64 1   
    61    35    64 1   
    62    36    61 1   
    63    37    61 1   
    64    38    61 1   
    65    59    62 1   
    66    60    62 1   
@<TRIPOS>SUBSTRUCTURE
     1 D2N         1 TEMP              0 ****  ****    0 ROOT
