@<TRIPOS>MOLECULE
D2N
   64    66     1     0     0
SMALL
No Charge or Current Charge


@<TRIPOS>ATOM
      1 N1           5.8650    -3.3530     0.8830 nb         1 D2N      -0.351000
      2 C2           6.9870    -2.6480     0.8880 ca         1 D2N       0.427900
      3 N3           7.1750    -1.4160     0.4180 nb         1 D2N      -0.272000
      4 C4           6.1280    -0.7900    -0.1550 ca         1 D2N       0.142000
      5 C5           4.8660    -1.4570    -0.2550 ca         1 D2N      -0.267000
      6 C6           4.8130    -2.7620     0.3190 ca         1 D2N       0.440900
      7 CAA        -10.6860    -3.1080     0.5450 c3         1 D2N      -0.097100
      8 NAD          8.0550    -3.2460     1.4600 nv         1 D2N      -1.052900
      9 NAE          3.7130    -3.5450     0.4270 nv         1 D2N      -1.064900
     10 OAF         -9.9050     0.7370    -1.0860 o          1 D2N      -0.489000
     11 CAG         -0.2750     2.5560     0.7740 ca         1 D2N      -0.161000
     12 CAH          1.0420     2.9770     1.0250 ca         1 D2N      -0.161000
     13 CAI          5.2660     1.1070    -1.1800 ca         1 D2N       0.149900
     14 CAJ          0.4730     1.4410    -1.2510 ca         1 D2N      -0.115000
     15 CAK        -10.6220    -1.7680    -0.2050 c3         1 D2N       0.167600
     16 CAL         -5.5060     1.2640     0.3190 c3         1 D2N      -0.075400
     17 CAM         -4.2120     1.0140    -0.4870 c3         1 D2N      -0.081400
     18 CAN         -6.7540     0.6230    -0.3270 c3         1 D2N      -0.067400
     19 CAO         -2.9690     1.6550     0.1600 c3         1 D2N       0.166600
     20 CAP         -8.0490     0.8750     0.4800 c3         1 D2N      -0.139400
     21 NAR          6.2950     0.4600    -0.6200 nb         1 D2N      -0.148000
     22 OAU          3.3880     3.0470     0.3520 os         1 D2N      -0.339100
     23 OAV         -9.5160    -1.0250     0.3340 os         1 D2N      -0.455100
     24 CAX         -9.2580     0.2150    -0.1890 c          1 D2N       0.593100
     25 CAZ         -0.5640     1.7880    -0.3720 ca         1 D2N       0.110100
     26 CBB          3.7740    -0.7830    -0.9000 ca         1 D2N       0.034700
     27 CBC          3.9910     0.5490    -1.3440 ca         1 D2N      -0.177300
     28 CBD          1.8030     1.8400    -1.0030 ca         1 D2N      -0.075300
     29 CBE          2.0870     2.6270     0.1390 ca         1 D2N       0.113100
     30 HAA        -10.8400    -2.9430     1.6180 hc         1 D2N       0.046367
     31 HAAA       -11.5180    -3.7140     0.1680 hc         1 D2N       0.046367
     32 HAAB        -9.7570    -3.6740     0.4060 hc         1 D2N       0.046367
     33 HAB          3.2440     4.7760     1.5280 h1         1 D2N       0.040367
     34 HABA         3.5640     3.2690     2.4290 h1         1 D2N       0.040367
     35 HABB         4.8530     4.0270     1.4720 h1         1 D2N       0.040367
     36 HAC          1.8270    -1.5170    -0.2250 hc         1 D2N       0.051700
     37 HACA         1.7960    -0.9230    -1.8790 hc         1 D2N       0.051700
     38 HACB         2.5310    -2.4520    -1.5760 hc         1 D2N       0.051700
     39 HNAD         7.8900    -4.0690     2.0330 hn         1 D2N       0.491000
     40 HNAA         8.8560    -2.6700     1.7070 hn         1 D2N       0.491000
     41 HNAE         2.8060    -3.1030     0.3500 hn         1 D2N       0.490500
     42 HNAB         3.7720    -4.3530     1.0400 hn         1 D2N       0.490500
     43 HAG         -1.0560     2.8420     1.4740 ha         1 D2N       0.116000
     44 HAH          1.2310     3.5760     1.9110 ha         1 D2N       0.117000
     45 HAI          5.4790     2.1220    -1.5110 h4         1 D2N       0.021100
     46 HAJ          0.2350     0.8550    -2.1350 ha         1 D2N       0.125000
     47 HAK        -10.4830    -1.9560    -1.2780 h1         1 D2N       0.048700
     48 HAKA       -11.5650    -1.2240    -0.0650 h1         1 D2N       0.048700
     49 HAL         -5.3800     0.8670     1.3340 hc         1 D2N       0.038700
     50 HALA        -5.6660     2.3460     0.4160 hc         1 D2N       0.038700
     51 HAM         -4.0470    -0.0660    -0.5820 hc         1 D2N       0.057700
     52 HAMA        -4.3330     1.4150    -1.5010 hc         1 D2N       0.057700
     53 HAN         -6.8790     1.0190    -1.3430 hc         1 D2N       0.057200
     54 HANA        -6.5950    -0.4590    -0.4250 hc         1 D2N       0.057200
     55 HAO         -3.1160     2.7410     0.2390 h1         1 D2N       0.031200
     56 HAOA        -2.8270     1.2430     1.1680 h1         1 D2N       0.031200
     57 HAP         -7.9080     0.4380     1.4760 hc         1 D2N       0.070700
     58 HAPA        -8.2230     1.9540     0.5530 hc         1 D2N       0.070700
     59 HAQ          3.3650     2.3520    -2.3810 hc         1 D2N       0.055700
     60 HAQA         2.4920     0.9430    -2.8680 hc         1 D2N       0.055700
     61 CAC          2.4120    -1.4500    -1.1490 c3         1 D2N      -0.068800
     62 CAQ          2.9100     1.4360    -1.9830 c3         1 D2N       0.038200
     63 OAW         -1.8390     1.3550    -0.6760 os         1 D2N      -0.350100
     64 CAB          3.7770     3.8170     1.5030 c3         1 D2N       0.147900
@<TRIPOS>BOND
     1     1     2 ar  
     2     1     6 ar  
     3     2     3 ar  
     4     2     8 1   
     5     3     4 ar  
     6     4     5 ar  
     7     4    21 ar  
     8     5     6 ar  
     9     5    26 ar  
    10     6     9 1   
    11     7    15 1   
    12     7    30 1   
    13     7    31 1   
    14     7    32 1   
    15     8    39 1   
    16     8    40 1   
    17     9    41 1   
    18     9    42 1   
    19    10    24 2   
    20    11    12 ar  
    21    11    25 ar  
    22    11    43 1   
    23    12    29 ar  
    24    12    44 1   
    25    13    21 ar  
    26    13    27 ar  
    27    13    45 1   
    28    14    25 ar  
    29    14    28 ar  
    30    14    46 1   
    31    15    23 1   
    32    15    47 1   
    33    15    48 1   
    34    16    17 1   
    35    16    18 1   
    36    16    49 1   
    37    16    50 1   
    38    17    19 1   
    39    17    51 1   
    40    17    52 1   
    41    18    20 1   
    42    18    53 1   
    43    18    54 1   
    44    19    55 1   
    45    19    56 1   
    46    19    63 1   
    47    20    24 1   
    48    20    57 1   
    49    20    58 1   
    50    22    29 1   
    51    22    64 1   
    52    23    24 1   
    53    25    63 1   
    54    26    27 ar  
    55    26    61 1   
    56    27    62 1   
    57    28    29 ar  
    58    28    62 1   
    59    33    64 1   
    60    34    64 1   
    61    35    64 1   
    62    36    61 1   
    63    37    61 1   
    64    38    61 1   
    65    59    62 1   
    66    60    62 1   
@<TRIPOS>SUBSTRUCTURE
     1 D2N         1 TEMP              0 ****  ****    0 ROOT
