@<TRIPOS>MOLECULE
D2O
   56    59     1     0     0
SMALL
abcg2


@<TRIPOS>ATOM
      1 N1          -5.4740    -2.3550    -0.6340 nb         1 D2O      -0.351000
      2 C2          -6.4100    -1.3970    -0.7450 ca         1 D2O       0.426900
      3 N3          -6.2450    -0.1140    -0.5010 nb         1 D2O      -0.271000
      4 C4          -5.0560     0.2510     0.0110 ca         1 D2O       0.141000
      5 C5          -4.0190    -0.6760     0.2940 ca         1 D2O      -0.265000
      6 C6          -4.2910    -2.0200    -0.1660 ca         1 D2O       0.439900
      7 NAC         -7.6300    -1.8150    -1.1470 nv         1 D2O      -1.052900
      8 NAD         -3.3690    -2.9970    -0.1590 nv         1 D2O      -1.065900
      9 CAE          8.8110    -1.3910    -0.9890 ca         1 D2O      -0.107000
     10 CAF          8.6970    -0.3190    -0.1130 ca         1 D2O      -0.109000
     11 CAG          7.7530    -2.2810    -1.1240 ca         1 D2O      -0.109000
     12 CAH          7.5320    -0.1400     0.6210 ca         1 D2O      -0.105000
     13 CAI          6.5910    -2.0970    -0.3870 ca         1 D2O      -0.105000
     14 CAJ          2.0370     1.4570    -0.6310 ca         1 D2O      -0.160000
     15 CAK          0.9220     2.1520    -1.1010 ca         1 D2O      -0.162000
     16 CAL         -3.7830     1.9690     0.7830 ca         1 D2O       0.149900
     17 CAM          0.8540     1.0020     1.4030 ca         1 D2O      -0.115000
     18 CAN          4.2150     0.0170     0.4290 c3         1 D2O       0.165600
     19 CAO          5.1880    -0.8060     1.2580 c3         1 D2O      -0.034100
     20 NAQ         -4.9100     1.5650     0.2550 nb         1 D2O      -0.148000
     21 OAT         -1.3250     2.9530    -0.7000 os         1 D2O      -0.338100
     22 CAV          6.4660    -1.0260     0.4960 ca         1 D2O      -0.086300
     23 CAW          2.0100     0.8820     0.6290 ca         1 D2O       0.109100
     24 CAY         -2.7220     1.1420     1.1740 ca         1 D2O      -0.176300
     25 CAZ         -0.2630     1.6770     0.9460 ca         1 D2O      -0.076300
     26 CBB         -2.8530    -0.2220     0.9600 ca         1 D2O       0.034700
     27 CBC         -0.2200     2.2750    -0.3250 ca         1 D2O       0.114100
     28 HAA         -2.3470     3.9740    -2.1000 h1         1 D2O       0.040700
     29 HAAA        -0.6030     4.2840    -2.1330 h1         1 D2O       0.040700
     30 HAAB        -1.2470     2.7580    -2.7730 h1         1 D2O       0.040700
     31 HAB         -1.0420    -1.3820     0.7310 hc         1 D2O       0.052033
     32 HABA        -1.2750    -0.7090     2.3250 hc         1 D2O       0.052033
     33 HABB        -2.2260    -2.0900     1.8420 hc         1 D2O       0.052033
     34 HNAC        -7.7070    -2.7240    -1.5690 hn         1 D2O       0.490500
     35 HNAA        -8.2900    -1.1210    -1.4520 hn         1 D2O       0.490500
     36 HNAD        -2.3870    -2.7950    -0.1180 hn         1 D2O       0.490000
     37 HNAB        -3.6180    -3.8500    -0.6330 hn         1 D2O       0.490000
     38 HAF          9.5190     0.3770     0.0030 ha         1 D2O       0.113500
     39 HAG          7.8330    -3.1210    -1.8010 ha         1 D2O       0.113500
     40 HAH          7.4550     0.6980     1.3050 ha         1 D2O       0.112000
     41 HAI          5.7710    -2.7990    -0.4970 ha         1 D2O       0.112000
     42 HAJ          2.9050     1.3900    -1.2720 ha         1 D2O       0.118000
     43 HAK          0.9820     2.5980    -2.0840 ha         1 D2O       0.118000
     44 HAL         -3.6910     3.0380     0.9490 h4         1 D2O       0.020100
     45 HAM          0.8340     0.5470     2.3860 ha         1 D2O       0.125000
     46 HAN          4.6640     0.9860     0.1770 h1         1 D2O       0.036200
     47 HANA         3.9940    -0.4980    -0.5130 h1         1 D2O       0.036200
     48 HAO          5.3950    -0.2870     2.1970 hc         1 D2O       0.061700
     49 HAOA         4.7280    -1.7640     1.5100 hc         1 D2O       0.061700
     50 CAB         -1.8010    -1.1550     1.4850 c3         1 D2O      -0.068800
     51 CAP         -1.5040     1.7780     1.7990 c3         1 D2O       0.038200
     52 OAU          3.0340     0.1950     1.1870 os         1 D2O      -0.352100
     53 CAA         -1.3670     3.5150    -1.9930 c3         1 D2O       0.147900
     54 HAE          9.7190    -1.5340    -1.5610 ha         1 D2O       0.114000
     55 HAP         -1.7300     2.8280     1.9980 hc         1 D2O       0.055700
     56 HAPA        -1.2960     1.3340     2.7760 hc         1 D2O       0.055700
@<TRIPOS>BOND
     1     1     2 ar  
     2     1     6 ar  
     3     2     3 ar  
     4     2     7 1   
     5     3     4 ar  
     6     4     5 ar  
     7     4    20 ar  
     8     5     6 ar  
     9     5    26 ar  
    10     6     8 1   
    11     7    34 1   
    12     7    35 1   
    13     8    36 1   
    14     8    37 1   
    15     9    10 ar  
    16     9    11 ar  
    17     9    54 1   
    18    10    12 ar  
    19    10    38 1   
    20    11    13 ar  
    21    11    39 1   
    22    12    22 ar  
    23    12    40 1   
    24    13    22 ar  
    25    13    41 1   
    26    14    15 ar  
    27    14    23 ar  
    28    14    42 1   
    29    15    27 ar  
    30    15    43 1   
    31    16    20 ar  
    32    16    24 ar  
    33    16    44 1   
    34    17    23 ar  
    35    17    25 ar  
    36    17    45 1   
    37    18    19 1   
    38    18    46 1   
    39    18    47 1   
    40    18    52 1   
    41    19    22 1   
    42    19    48 1   
    43    19    49 1   
    44    21    27 1   
    45    21    53 1   
    46    23    52 1   
    47    24    26 ar  
    48    24    51 1   
    49    25    27 ar  
    50    25    51 1   
    51    26    50 1   
    52    28    53 1   
    53    29    53 1   
    54    30    53 1   
    55    31    50 1   
    56    32    50 1   
    57    33    50 1   
    58    51    55 1   
    59    51    56 1   
@<TRIPOS>SUBSTRUCTURE
     1 D2O         1 TEMP              0 ****  ****    0 ROOT
