@<TRIPOS>MOLECULE
D2O
   56    59     1     0     0
SMALL
No Charge or Current Charge


@<TRIPOS>ATOM
      1 N1          -5.5670    -2.4130    -0.5780 nb         1 D2O      -0.351000
      2 C2          -6.4380    -1.4380    -0.7960 ca         1 D2O       0.426900
      3 N3          -6.2910    -0.1420    -0.5260 nb         1 D2O      -0.271000
      4 C4          -5.1410     0.2590     0.0530 ca         1 D2O       0.141000
      5 C5          -4.1300    -0.7030     0.3710 ca         1 D2O      -0.265000
      6 C6          -4.4220    -2.0480    -0.0020 ca         1 D2O       0.439900
      7 NAC         -7.5990    -1.8060    -1.3800 nv         1 D2O      -1.052900
      8 NAD         -3.5880    -3.1090     0.1120 nv         1 D2O      -1.065900
      9 CAE          9.0250    -1.4680    -0.8950 ca         1 D2O      -0.107000
     10 CAF          8.8630    -0.3490    -0.0600 ca         1 D2O      -0.109000
     11 CAG          7.9650    -2.3740    -1.0660 ca         1 D2O      -0.109000
     12 CAH          7.6420    -0.1370     0.6040 ca         1 D2O      -0.105000
     13 CAI          6.7440    -2.1620    -0.4020 ca         1 D2O      -0.105000
     14 CAJ          1.9940     1.5170    -0.7010 ca         1 D2O      -0.160000
     15 CAK          0.8670     2.2340    -1.1410 ca         1 D2O      -0.162000
     16 CAL         -3.8310     1.9890     0.8780 ca         1 D2O       0.149900
     17 CAM          0.8460     1.0030     1.3790 ca         1 D2O      -0.115000
     18 CAN          4.2790     0.0280     0.3020 c3         1 D2O       0.165600
     19 CAO          5.2510    -0.8100     1.1520 c3         1 D2O      -0.034100
     20 NAQ         -4.9690     1.5660     0.3160 nb         1 D2O      -0.148000
     21 OAT         -1.3940     3.0540    -0.7240 os         1 D2O      -0.338100
     22 CAV          6.5770    -1.0440     0.4380 ca         1 D2O      -0.086300
     23 CAW          1.9860     0.9010     0.5670 ca         1 D2O       0.109100
     24 CAY         -2.7800     1.1380     1.2460 ca         1 D2O      -0.176300
     25 CAZ         -0.2980     1.7040     0.9430 ca         1 D2O      -0.076300
     26 CBB         -2.9290    -0.2570     1.0200 ca         1 D2O       0.034700
     27 CBC         -0.2820     2.3360    -0.3230 ca         1 D2O       0.114100
     28 HAA         -2.4530     4.1960    -2.1150 h1         1 D2O       0.040700
     29 HAAA        -0.6970     4.4570    -2.1170 h1         1 D2O       0.040700
     30 HAAB        -1.3830     2.9660    -2.8180 h1         1 D2O       0.040700
     31 HAB         -1.2390    -1.5970     0.6530 hc         1 D2O       0.052033
     32 HABA        -1.1310    -0.7700     2.2000 hc         1 D2O       0.052033
     33 HABB        -2.2540    -2.0680     2.0460 hc         1 D2O       0.052033
     34 HNAC        -7.6450    -2.7260    -1.8100 hn         1 D2O       0.490500
     35 HNAA        -8.1870    -1.0820    -1.7850 hn         1 D2O       0.490500
     36 HNAD        -2.5980    -2.9270     0.2160 hn         1 D2O       0.490000
     37 HNAB        -3.8420    -3.9600    -0.3820 hn         1 D2O       0.490000
     38 HAF          9.6830     0.3530     0.0730 ha         1 D2O       0.113500
     39 HAG          8.0890    -3.2400    -1.7130 ha         1 D2O       0.113500
     40 HAH          7.5250     0.7330     1.2470 ha         1 D2O       0.112000
     41 HAI          5.9280    -2.8680    -0.5420 ha         1 D2O       0.112000
     42 HAJ          2.8610     1.4570    -1.3530 ha         1 D2O       0.118000
     43 HAK          0.9070     2.7060    -2.1180 ha         1 D2O       0.118000
     44 HAL         -3.7620     3.0640     1.0390 h4         1 D2O       0.020100
     45 HAM          0.8580     0.5300     2.3570 ha         1 D2O       0.125000
     46 HAN          4.7350     1.0020     0.0820 h1         1 D2O       0.036200
     47 HANA         4.0810    -0.4910    -0.6440 h1         1 D2O       0.036200
     48 HAO          5.4210    -0.3000     2.1080 hc         1 D2O       0.061700
     49 HAOA         4.7780    -1.7700     1.3930 hc         1 D2O       0.061700
     50 CAB         -1.8310    -1.2210     1.4950 c3         1 D2O      -0.068800
     51 CAP         -1.5270     1.7880     1.8550 c3         1 D2O       0.038200
     52 OAU          3.0650     0.1930     1.0560 os         1 D2O      -0.352100
     53 CAA         -1.4820     3.6980    -2.0060 c3         1 D2O       0.147900
     54 HAE          9.9700    -1.6320    -1.4090 ha         1 D2O       0.114000
     55 HAP         -1.7210     2.8460     2.0710 hc         1 D2O       0.055700
     56 HAPA        -1.3180     1.3520     2.8390 hc         1 D2O       0.055700
@<TRIPOS>BOND
     1     1     2 ar  
     2     1     6 ar  
     3     2     3 ar  
     4     2     7 1   
     5     3     4 ar  
     6     4     5 ar  
     7     4    20 ar  
     8     5     6 ar  
     9     5    26 ar  
    10     6     8 1   
    11     7    34 1   
    12     7    35 1   
    13     8    36 1   
    14     8    37 1   
    15     9    10 ar  
    16     9    11 ar  
    17     9    54 1   
    18    10    12 ar  
    19    10    38 1   
    20    11    13 ar  
    21    11    39 1   
    22    12    22 ar  
    23    12    40 1   
    24    13    22 ar  
    25    13    41 1   
    26    14    15 ar  
    27    14    23 ar  
    28    14    42 1   
    29    15    27 ar  
    30    15    43 1   
    31    16    20 ar  
    32    16    24 ar  
    33    16    44 1   
    34    17    23 ar  
    35    17    25 ar  
    36    17    45 1   
    37    18    19 1   
    38    18    46 1   
    39    18    47 1   
    40    18    52 1   
    41    19    22 1   
    42    19    48 1   
    43    19    49 1   
    44    21    27 1   
    45    21    53 1   
    46    23    52 1   
    47    24    26 ar  
    48    24    51 1   
    49    25    27 ar  
    50    25    51 1   
    51    26    50 1   
    52    28    53 1   
    53    29    53 1   
    54    30    53 1   
    55    31    50 1   
    56    32    50 1   
    57    33    50 1   
    58    51    55 1   
    59    51    56 1   
@<TRIPOS>SUBSTRUCTURE
     1 D2O         1 TEMP              0 ****  ****    0 ROOT
