@<TRIPOS>MOLECULE
D2P
   12    11     1     0     0
SMALL
abcg2


@<TRIPOS>ATOM
      1 O1           2.5010     1.3450     0.1470 oh         1 D2P      -0.664000
      2 C2           2.0400     0.0460    -0.1280 c3         1 D2P       0.153600
      3 C3           0.5900    -0.0300     0.3300 c3         1 D2P       0.127300
      4 C4          -0.2960     0.9240    -0.4350 c3         1 D2P       0.119600
      5 CL5         -1.9870     0.8680     0.1510 cl         1 D2P      -0.264000
      6 CL1          0.0340    -1.7210     0.0700 cl         1 D2P      -0.265000
      7 H1           3.4300     1.3930    -0.0960 ho         1 D2P       0.454000
      8 H2C1         2.0910    -0.1960    -1.1970 h1         1 D2P       0.038700
      9 H2C2         2.6130    -0.7170     0.4090 h1         1 D2P       0.038700
     10 H3           0.5210     0.1570     1.4010 h1         1 D2P       0.097700
     11 H4C1         0.0560     1.9440    -0.2960 h1         1 D2P       0.082200
     12 H4C2        -0.3050     0.6900    -1.4980 h1         1 D2P       0.082200
@<TRIPOS>BOND
     1     1     2 1   
     2     1     7 1   
     3     2     3 1   
     4     2     8 1   
     5     2     9 1   
     6     3     4 1   
     7     3     6 1   
     8     3    10 1   
     9     4     5 1   
    10     4    11 1   
    11     4    12 1   
@<TRIPOS>SUBSTRUCTURE
     1 D2P         1 TEMP              0 ****  ****    0 ROOT
