@<TRIPOS>MOLECULE
D2P
   12    11     1     0     0
SMALL
No Charge or Current Charge


@<TRIPOS>ATOM
      1 O1           2.5880     1.3600     0.1730 oh         1 D2P      -0.664000
      2 C2           2.0600     0.0560    -0.1220 c3         1 D2P       0.153600
      3 C3           0.5780    -0.0520     0.3130 c3         1 D2P       0.127300
      4 C4          -0.3460     0.9300    -0.4430 c3         1 D2P       0.119600
      5 Cl5         -2.0670     0.8640     0.1580 cl         1 D2P      -0.264000
      6 Cl1         -0.0000    -1.7720     0.1060 cl         1 D2P      -0.265000
      7 H1           3.5340     1.3580    -0.0980 ho         1 D2P       0.454000
      8 H2C1         2.1340    -0.1520    -1.1980 h1         1 D2P       0.038700
      9 H2C2         2.6400    -0.7130     0.4060 h1         1 D2P       0.038700
     10 H3           0.5160     0.1650     1.3870 h1         1 D2P       0.097700
     11 H4C1         0.0050     1.9610    -0.3080 h1         1 D2P       0.082200
     12 H4C2        -0.3530     0.6980    -1.5160 h1         1 D2P       0.082200
@<TRIPOS>BOND
     1     1     2 1   
     2     1     7 1   
     3     2     3 1   
     4     2     8 1   
     5     2     9 1   
     6     3     4 1   
     7     3     6 1   
     8     3    10 1   
     9     4     5 1   
    10     4    11 1   
    11     4    12 1   
@<TRIPOS>SUBSTRUCTURE
     1 D2P         1 TEMP              0 ****  ****    0 ROOT
