@<TRIPOS>MOLECULE
D2Q
   61    63     1     0     0
SMALL
No Charge or Current Charge


@<TRIPOS>ATOM
      1 C1          -7.2740    -2.3820    -1.2260 c3         1 D2Q       0.169600
      2 C2          -6.9370    -3.5040    -2.2200 c3         1 D2Q      -0.097100
      3 C3          -3.9940     0.3330     0.3190 c3         1 D2Q      -0.062400
      4 C9           1.6570     2.7730     1.0340 ca         1 D2Q      -0.077300
      5 N1           0.9060    -3.6260     1.0660 nb         1 D2Q      -0.272000
      6 C10          1.6270    -4.2800     0.1570 ca         1 D2Q       0.429900
      7 C2'A         0.3960     2.7700     0.3920 ca         1 D2Q       0.121100
      8 N2           1.2940    -5.5710    -0.0620 nv         1 D2Q      -1.055900
      9 O2          -0.5750     1.8960     0.8410 os         1 D2Q      -0.348100
     10 C21         -1.8440     1.7400     0.1870 c3         1 D2Q       0.165600
     11 C26         -2.6000     0.6150     0.9200 c3         1 D2Q      -0.088400
     12 C11          0.1540     3.6580    -0.6810 ca         1 D2Q      -0.161000
     13 N3           2.6250    -3.8090    -0.5760 nb         1 D2Q      -0.349000
     14 C4           2.9530    -2.5370    -0.3570 ca         1 D2Q       0.438900
     15 C4'A         1.1550     4.5480    -1.1090 ca         1 D2Q      -0.159000
     16 N4           3.9400    -2.1470    -1.1990 nv         1 D2Q      -1.061900
     17 C44         -4.7490    -0.8010     1.0520 c3         1 D2Q      -0.140400
     18 C45         -6.1180    -1.0590     0.4190 c          1 D2Q       0.595100
     19 O46         -7.1250    -0.4230     0.7000 o          1 D2Q      -0.498000
     20 O47         -6.0620    -2.0470    -0.5290 os         1 D2Q      -0.453100
     21 C4A          2.2910    -1.7140     0.6020 ca         1 D2Q      -0.265000
     22 C5           2.6180    -0.3470     0.8980 ca         1 D2Q       0.036700
     23 C5'A         2.4080     4.5630    -0.4620 ca         1 D2Q       0.103100
     24 O5           3.4260     5.4180    -0.8330 os         1 D2Q      -0.342100
     25 C51          3.8170     0.3800     0.2700 c3         1 D2Q      -0.069800
     26 C5A          3.2840     6.3590    -1.9120 c3         1 D2Q       0.149900
     27 C6           1.7980     0.3380     1.8340 ca         1 D2Q      -0.175300
     28 C6'A         2.6480     3.6810     0.6040 ca         1 D2Q      -0.114000
     29 C7           0.7580    -0.3680     2.4530 ca         1 D2Q       0.147900
     30 N8           0.4830    -1.6540     2.2090 nb         1 D2Q      -0.153000
     31 C8A          1.2110    -2.3350     1.3070 ca         1 D2Q       0.141000
     32 H1          -7.6650    -1.5130    -1.7730 h1         1 D2Q       0.047700
     33 H1A         -8.0450    -2.7310    -0.5270 h1         1 D2Q       0.047700
     34 H2          -6.5580    -4.3870    -1.6920 hc         1 D2Q       0.046700
     35 H2A         -7.8330    -3.7960    -2.7800 hc         1 D2Q       0.046700
     36 H2B         -6.1770    -3.1700    -2.9370 hc         1 D2Q       0.046700
     37 H3          -4.5960     1.2500     0.3560 hc         1 D2Q       0.053700
     38 H3A         -3.8830     0.0660    -0.7400 hc         1 D2Q       0.053700
     39 HN2          0.3970    -5.8990     0.2880 hn         1 D2Q       0.492000
     40 HN2A         1.6510    -6.0240    -0.8990 hn         1 D2Q       0.492000
     41 H21         -2.4240     2.6700     0.2360 h1         1 D2Q       0.032700
     42 H21A        -1.7060     1.4610    -0.8660 h1         1 D2Q       0.032700
     43 H26         -2.7080     0.8880     1.9770 hc         1 D2Q       0.060700
     44 H26A        -1.9970    -0.3010     0.8820 hc         1 D2Q       0.060700
     45 H8          -0.8050     3.6760    -1.1910 ha         1 D2Q       0.118000
     46 H4           0.9380     5.2180    -1.9360 ha         1 D2Q       0.117000
     47 HN4          4.0570    -1.1560    -1.3710 hn         1 D2Q       0.488000
     48 HN4A         4.1750    -2.7710    -1.9670 hn         1 D2Q       0.488000
     49 H44         -4.1420    -1.7110     0.9700 hc         1 D2Q       0.076700
     50 H44A        -4.8870    -0.5220     2.1030 hc         1 D2Q       0.076700
     51 H51          3.6200     0.6410    -0.7760 hc         1 D2Q       0.052367
     52 H51A         4.0820     1.3070     0.7830 hc         1 D2Q       0.052367
     53 H51B         4.7260    -0.2280     0.3260 hc         1 D2Q       0.052367
     54 H5A          4.2080     6.9370    -2.0370 h1         1 D2Q       0.039033
     55 H5AA         3.0760     5.8410    -2.8570 h1         1 D2Q       0.039033
     56 H5AB         2.4670     7.0640    -1.7100 h1         1 D2Q       0.039033
     57 H6           3.6160     3.7060     1.0960 ha         1 D2Q       0.126000
     58 H61          2.9630     2.0000     2.6020 hc         1 D2Q       0.055700
     59 H61A         1.2890     2.0790     3.0290 hc         1 D2Q       0.055700
     60 H7           0.1070     0.1180     3.1790 h4         1 D2Q       0.019100
     61 C61          1.9580     1.8230     2.1990 c3         1 D2Q       0.039200
@<TRIPOS>BOND
     1     1     2 1   
     2     1    20 1   
     3     1    32 1   
     4     1    33 1   
     5     2    34 1   
     6     2    35 1   
     7     2    36 1   
     8     3    11 1   
     9     3    17 1   
    10     3    37 1   
    11     3    38 1   
    12     4     7 ar  
    13     4    28 ar  
    14     4    61 1   
    15     5     6 ar  
    16     5    31 ar  
    17     6     8 1   
    18     6    13 ar  
    19     7     9 1   
    20     7    12 ar  
    21     8    39 1   
    22     8    40 1   
    23     9    10 1   
    24    10    11 1   
    25    10    41 1   
    26    10    42 1   
    27    11    43 1   
    28    11    44 1   
    29    12    15 ar  
    30    12    45 1   
    31    13    14 ar  
    32    14    16 1   
    33    14    21 ar  
    34    15    23 ar  
    35    15    46 1   
    36    16    47 1   
    37    16    48 1   
    38    17    18 1   
    39    17    49 1   
    40    17    50 1   
    41    18    19 2   
    42    18    20 1   
    43    21    22 ar  
    44    21    31 ar  
    45    22    25 1   
    46    22    27 ar  
    47    23    24 1   
    48    23    28 ar  
    49    24    26 1   
    50    25    51 1   
    51    25    52 1   
    52    25    53 1   
    53    26    54 1   
    54    26    55 1   
    55    26    56 1   
    56    27    29 ar  
    57    27    61 1   
    58    28    57 1   
    59    29    30 ar  
    60    29    60 1   
    61    30    31 ar  
    62    58    61 1   
    63    59    61 1   
@<TRIPOS>SUBSTRUCTURE
     1 D2Q         1 TEMP              0 ****  ****    0 ROOT
