@<TRIPOS>MOLECULE
D2Q
   61    63     1     0     0
SMALL
bcc


@<TRIPOS>ATOM
      1 C1          -7.6920    -2.5690    -0.8140 c3         1 D2Q       0.146400
      2 C2          -8.1380    -3.8590    -0.1730 c3         1 D2Q      -0.097100
      3 C3          -3.7920     0.3840    -0.3770 c3         1 D2Q      -0.062400
      4 C9           1.5800     2.7040     1.1650 ca         1 D2Q      -0.077300
      5 N1           1.0810    -3.6450     0.4710 nb         1 D2Q      -0.798000
      6 C10          1.9420    -4.1950    -0.3580 ca         1 D2Q       0.955900
      7 C2'A         0.3920     2.7750     0.4200 ca         1 D2Q       0.121100
      8 N2           1.8130    -5.5120    -0.6220 nv         1 D2Q      -0.945500
      9 O2          -0.5600     1.8750     0.7440 os         1 D2Q      -0.324900
     10 C21         -1.7070     1.7550    -0.0700 c3         1 D2Q       0.142400
     11 C26         -2.5320     0.5960     0.4510 c3         1 D2Q      -0.088400
     12 C11          0.2580     3.7430    -0.5620 ca         1 D2Q      -0.179000
     13 N3           2.9590    -3.5760    -0.9800 nb         1 D2Q      -0.875000
     14 C4           3.1840    -2.3130    -0.6970 ca         1 D2Q       0.767200
     15 C4'A         1.2770     4.6630    -0.8040 ca         1 D2Q      -0.177000
     16 N4           4.1780    -1.7310    -1.3930 nv         1 D2Q      -0.951500
     17 C44         -4.5920    -0.7970     0.1480 c3         1 D2Q      -0.140400
     18 C45         -5.8530    -1.0770    -0.6250 c          1 D2Q       0.644100
     19 O46         -6.2810    -0.3940    -1.5250 o          1 D2Q      -0.547000
     20 O47         -6.4550    -2.1730    -0.1920 os         1 D2Q      -0.429900
     21 C4A          2.4060    -1.6150     0.3010 ca         1 D2Q      -0.395600
     22 C5           2.6340    -0.3080     0.7990 ca         1 D2Q       0.036700
     23 C5'A         2.4400     4.6210    -0.0520 ca         1 D2Q       0.103100
     24 O5           3.4820     5.4700    -0.1860 os         1 D2Q      -0.318900
     25 C51          3.8690     0.4800     0.4740 c3         1 D2Q      -0.069800
     26 C5A          3.4030     6.4730    -1.1720 c3         1 D2Q       0.126700
     27 C6           1.6920     0.2290     1.6630 ca         1 D2Q      -0.240600
     28 C6'A         2.5740     3.6330     0.9260 ca         1 D2Q      -0.132000
     29 C7           0.6150    -0.5850     2.0360 ca         1 D2Q       0.476200
     30 N8           0.4250    -1.8230     1.6620 nb         1 D2Q      -0.679000
     31 C8A          1.3060    -2.3630     0.8010 ca         1 D2Q       0.732300
     32 H1          -7.5380    -2.7030    -1.8860 h1         1 D2Q       0.047700
     33 H1A         -8.4380    -1.7840    -0.6760 h1         1 D2Q       0.047700
     34 H2          -8.3160    -3.7390     0.8950 hc         1 D2Q       0.046700
     35 H2A         -9.0710    -4.1770    -0.6340 hc         1 D2Q       0.046700
     36 H2B         -7.4060    -4.6530    -0.3190 hc         1 D2Q       0.046700
     37 H3          -4.4070     1.2870    -0.3560 hc         1 D2Q       0.053700
     38 H3A         -3.5220     0.2110    -1.4210 hc         1 D2Q       0.053700
     39 HN2          0.9670    -5.9750    -0.3460 hn         1 D2Q       0.436800
     40 HN2A         2.3000    -5.8970    -1.4100 hn         1 D2Q       0.436800
     41 H21         -2.2990     2.6790    -0.0470 h1         1 D2Q       0.032700
     42 H21A        -1.4170     1.5770    -1.1130 h1         1 D2Q       0.032700
     43 H26         -2.8020     0.7890     1.4930 hc         1 D2Q       0.060700
     44 H26A        -1.9230    -0.3120     0.4410 hc         1 D2Q       0.060700
     45 H8          -0.6410     3.8140    -1.1580 ha         1 D2Q       0.136000
     46 H4           1.1260     5.4000    -1.5800 ha         1 D2Q       0.135000
     47 HN4          4.2270    -0.7370    -1.5120 hn         1 D2Q       0.432800
     48 HN4A         4.5560    -2.2680    -2.1530 hn         1 D2Q       0.432800
     49 H44         -3.9790    -1.7030     0.1500 hc         1 D2Q       0.076700
     50 H44A        -4.8710    -0.6340     1.1950 hc         1 D2Q       0.076700
     51 H51          3.7770     1.0290    -0.4660 hc         1 D2Q       0.052367
     52 H51A         4.0660     1.2270     1.2360 hc         1 D2Q       0.052367
     53 H51B         4.7540    -0.1500     0.4240 hc         1 D2Q       0.052367
     54 H5A          4.3240     7.0470    -1.1090 h1         1 D2Q       0.039033
     55 H5AA         3.3230     6.0560    -2.1790 h1         1 D2Q       0.039033
     56 H5AB         2.5620     7.1520    -1.0060 h1         1 D2Q       0.039033
     57 H6           3.4890     3.6010     1.5060 ha         1 D2Q       0.144000
     58 H61          2.7070     1.7990     2.7310 hc         1 D2Q       0.055700
     59 H61A         0.9850     1.7400     2.9780 hc         1 D2Q       0.055700
     60 H7          -0.1280    -0.1730     2.7140 h4         1 D2Q       0.019100
     61 C61          1.7580     1.6330     2.2130 c3         1 D2Q       0.039200
@<TRIPOS>BOND
     1     1     2 1   
     2     1    20 1   
     3     1    32 1   
     4     1    33 1   
     5     2    34 1   
     6     2    35 1   
     7     2    36 1   
     8     3    11 1   
     9     3    17 1   
    10     3    37 1   
    11     3    38 1   
    12     4     7 ar  
    13     4    28 ar  
    14     4    61 1   
    15     5     6 ar  
    16     5    31 ar  
    17     6     8 1   
    18     6    13 ar  
    19     7     9 1   
    20     7    12 ar  
    21     8    39 1   
    22     8    40 1   
    23     9    10 1   
    24    10    11 1   
    25    10    41 1   
    26    10    42 1   
    27    11    43 1   
    28    11    44 1   
    29    12    15 ar  
    30    12    45 1   
    31    13    14 ar  
    32    14    16 1   
    33    14    21 ar  
    34    15    23 ar  
    35    15    46 1   
    36    16    47 1   
    37    16    48 1   
    38    17    18 1   
    39    17    49 1   
    40    17    50 1   
    41    18    19 2   
    42    18    20 1   
    43    21    22 ar  
    44    21    31 ar  
    45    22    25 1   
    46    22    27 ar  
    47    23    24 1   
    48    23    28 ar  
    49    24    26 1   
    50    25    51 1   
    51    25    52 1   
    52    25    53 1   
    53    26    54 1   
    54    26    55 1   
    55    26    56 1   
    56    27    29 ar  
    57    27    61 1   
    58    28    57 1   
    59    29    30 ar  
    60    29    60 1   
    61    30    31 ar  
    62    58    61 1   
    63    59    61 1   
@<TRIPOS>SUBSTRUCTURE
     1 D2Q         1 TEMP              0 ****  ****    0 ROOT
