@<TRIPOS>MOLECULE
D2R
   52    54     1     0     0
SMALL
No Charge or Current Charge


@<TRIPOS>ATOM
      1 N1          -0.6710     4.5770    -0.8990 nb         1 D2R      -0.361000
      2 C2           0.6440     4.5810    -0.7330 ca         1 D2R       0.421900
      3 N3           1.3920     3.6490    -0.1440 nb         1 D2R      -0.248000
      4 C4           0.7700     2.5690     0.3720 ca         1 D2R       0.138000
      5 C5          -0.6550     2.4620     0.2900 ca         1 D2R      -0.269000
      6 C6          -1.3140     3.5260    -0.3940 ca         1 D2R       0.436900
      7 CAA         -6.0400    -4.1790     0.0610 c3         1 D2R       0.152900
      8 NAC          1.2950     5.6490    -1.2450 nv         1 D2R      -1.063900
      9 NAD         -2.6350     3.5900    -0.6830 nv         1 D2R      -1.074900
     10 OAE          6.5810    -2.8730     0.1080 o          1 D2R      -0.738000
     11 OAF          6.3270    -1.0190     1.1740 o          1 D2R      -0.738000
     12 CAG          1.2100    -1.7070    -1.0160 c1         1 D2R      -0.050100
     13 CAI         -3.3460    -3.4690    -0.7610 ca         1 D2R      -0.202000
     14 CAJ         -2.0350    -3.1050    -1.1100 ca         1 D2R      -0.068000
     15 CAK          0.9140     0.5190     1.4520 ca         1 D2R       0.146900
     16 CAL         -3.1050    -2.2690     1.3370 ca         1 D2R      -0.153000
     17 CAM          2.5600    -1.3030    -1.4260 c3         1 D2R      -0.018300
     18 CAN          3.6430    -1.7290    -0.4070 c3         1 D2R      -0.053400
     19 CAO          5.0700    -1.2960    -0.8210 c3         1 D2R      -0.207400
     20 NAQ          1.5090     1.6090     0.9550 nb         1 D2R      -0.103000
     21 CAU          6.0910    -1.7610     0.2330 c          1 D2R       0.719000
     22 CAX         -1.3000     1.3210     0.8760 ca         1 D2R       0.021700
     23 CAY         -3.8840    -3.0510     0.4710 ca         1 D2R       0.125100
     24 CAZ         -1.2510    -2.3190    -0.2440 ca         1 D2R       0.043000
     25 CBA         -0.4720     0.3080     1.4280 ca         1 D2R      -0.175300
     26 CBB         -1.7920    -1.8790     0.9940 ca         1 D2R      -0.026300
     27 HAA         -6.2330    -3.6880    -0.9020 h1         1 D2R       0.036033
     28 HAAA        -5.6060    -5.1690    -0.1290 h1         1 D2R       0.036033
     29 HAAB        -7.0020    -4.3220     0.5680 h1         1 D2R       0.036033
     30 HAB         -3.2540     0.8610     0.0040 hc         1 D2R       0.046033
     31 HABA        -3.1430     0.4440     1.7130 hc         1 D2R       0.046033
     32 HABB        -3.3030     2.1050     1.2860 hc         1 D2R       0.046033
     33 HNAC         0.7910     6.2450    -1.8970 hn         1 D2R       0.490500
     34 HNAA         2.3030     5.5900    -1.3650 hn         1 D2R       0.490500
     35 HNAD        -3.1710     2.7320    -0.6450 hn         1 D2R       0.486000
     36 HNAB        -2.9330     4.2830    -1.3640 hn         1 D2R       0.486000
     37 HAI         -3.9200    -4.0770    -1.4550 ha         1 D2R       0.111000
     38 HAJ         -1.6240    -3.4390    -2.0610 ha         1 D2R       0.117000
     39 HAK          1.5840    -0.2230     1.8830 h4         1 D2R       0.043100
     40 HAL         -3.5340    -1.9590     2.2860 ha         1 D2R       0.119000
     41 HAM          2.7800    -1.7440    -2.4050 hc         1 D2R       0.050700
     42 HAMA         2.5790    -0.2130    -1.5490 hc         1 D2R       0.050700
     43 HAN          3.4080    -1.2980     0.5740 hc         1 D2R       0.052200
     44 HANA         3.6180    -2.8200    -0.2890 hc         1 D2R       0.052200
     45 HAO          5.2650    -1.7820    -1.7850 hc         1 D2R       0.014700
     46 HAOA         5.0470    -0.2000    -0.8760 hc         1 D2R       0.014700
     47 HAP         -0.1570    -1.6290     2.3640 hc         1 D2R       0.057700
     48 HAPA        -1.5940    -0.8200     2.8900 hc         1 D2R       0.057700
     49 CAB         -2.8260     1.1730     0.9640 c3         1 D2R      -0.064800
     50 CAP         -0.9950    -1.0240     1.9950 c3         1 D2R       0.027200
     51 OAT         -5.1610    -3.3830     0.8740 os         1 D2R      -0.348100
     52 CAH          0.0870    -1.9950    -0.6570 cg         1 D2R      -0.206000
@<TRIPOS>BOND
     1     1     2 ar  
     2     1     6 ar  
     3     2     3 ar  
     4     2     8 1   
     5     3     4 ar  
     6     4     5 ar  
     7     4    20 ar  
     8     5     6 ar  
     9     5    22 ar  
    10     6     9 1   
    11     7    27 1   
    12     7    28 1   
    13     7    29 1   
    14     7    51 1   
    15     8    33 1   
    16     8    34 1   
    17     9    35 1   
    18     9    36 1   
    19    10    21 1   
    20    11    21 1   
    21    12    17 1   
    22    12    52 3   
    23    13    14 ar  
    24    13    23 ar  
    25    13    37 1   
    26    14    24 ar  
    27    14    38 1   
    28    15    20 ar  
    29    15    25 ar  
    30    15    39 1   
    31    16    23 ar  
    32    16    26 ar  
    33    16    40 1   
    34    17    18 1   
    35    17    41 1   
    36    17    42 1   
    37    18    19 1   
    38    18    43 1   
    39    18    44 1   
    40    19    21 1   
    41    19    45 1   
    42    19    46 1   
    43    22    25 ar  
    44    22    49 1   
    45    23    51 1   
    46    24    26 ar  
    47    24    52 1   
    48    25    50 1   
    49    26    50 1   
    50    30    49 1   
    51    31    49 1   
    52    32    49 1   
    53    47    50 1   
    54    48    50 1   
@<TRIPOS>SUBSTRUCTURE
     1 D2R         1 TEMP              0 ****  ****    0 ROOT
