@<TRIPOS>MOLECULE
D2R
   52    54     1     0     0
SMALL
abcg2


@<TRIPOS>ATOM
      1 N1          -0.7770     4.6360    -0.5160 nb         1 D2R      -0.361000
      2 C2           0.5640     4.6390    -0.4280 ca         1 D2R       0.421900
      3 N3           1.3260     3.6190    -0.0910 nb         1 D2R      -0.248000
      4 C4           0.6920     2.5040     0.3090 ca         1 D2R       0.138000
      5 C5          -0.7230     2.4020     0.3830 ca         1 D2R      -0.269000
      6 C6          -1.4230     3.5460    -0.1620 ca         1 D2R       0.436900
      7 CAA         -6.0620    -3.8300    -0.1610 c3         1 D2R       0.152900
      8 NAC          1.1650     5.8110    -0.7170 nv         1 D2R      -1.063900
      9 NAD         -2.7510     3.5670    -0.3510 nv         1 D2R      -1.074900
     10 OAE          5.6600    -0.2770     1.0620 o          1 D2R      -0.738000
     11 OAF          7.2750    -0.8090    -0.3770 o          1 D2R      -0.738000
     12 CAG          1.3220    -2.2860    -0.9950 c1         1 D2R      -0.050100
     13 CAI         -3.3850    -3.4190    -0.9090 ca         1 D2R      -0.202000
     14 CAJ         -2.0470    -3.1980    -1.1920 ca         1 D2R      -0.068000
     15 CAK          0.9200     0.3820     1.0900 ca         1 D2R       0.146900
     16 CAL         -3.1010    -2.1790     1.1330 ca         1 D2R      -0.153000
     17 CAM          2.7220    -2.2520    -1.3970 c3         1 D2R      -0.018300
     18 CAN          3.6330    -1.4920    -0.4280 c3         1 D2R      -0.053400
     19 CAO          5.0840    -1.5580    -0.8720 c3         1 D2R      -0.207400
     20 NAQ          1.4880     1.4800     0.6620 nb         1 D2R      -0.103000
     21 CAU          6.0900    -0.8100     0.0220 c          1 D2R       0.719000
     22 CAX         -1.3020     1.2400     0.9490 ca         1 D2R       0.021700
     23 CAY         -3.9200    -2.9090     0.2700 ca         1 D2R       0.125100
     24 CAZ         -1.2190    -2.4730    -0.3350 ca         1 D2R       0.043000
     25 CBA         -0.4550     0.1860     1.2670 ca         1 D2R      -0.175300
     26 CBB         -1.7680    -1.9410     0.8470 ca         1 D2R      -0.026300
     27 HAA         -6.1900    -3.3820    -1.1490 h1         1 D2R       0.036033
     28 HAAA        -5.7070    -4.8570    -0.2810 h1         1 D2R       0.036033
     29 HAAB        -7.0260    -3.8500     0.3420 h1         1 D2R       0.036033
     30 HAB         -3.3540     0.7820     0.4370 hc         1 D2R       0.046033
     31 HABA        -2.9250     0.4420     2.0940 hc         1 D2R       0.046033
     32 HABB        -3.1690     2.0990     1.6050 hc         1 D2R       0.046033
     33 HNAC         0.6350     6.5240    -1.1860 hn         1 D2R       0.490500
     34 HNAA         2.1610     5.8190    -0.8520 hn         1 D2R       0.490500
     35 HNAD        -3.2950     2.7250    -0.3970 hn         1 D2R       0.486000
     36 HNAB        -3.1230     4.3560    -0.8550 hn         1 D2R       0.486000
     37 HAI         -3.9800    -3.9910    -1.6080 ha         1 D2R       0.111000
     38 HAJ         -1.6300    -3.6100    -2.1020 ha         1 D2R       0.117000
     39 HAK          1.5940    -0.4300     1.3490 h4         1 D2R       0.043100
     40 HAL         -3.5310    -1.7890     2.0480 ha         1 D2R       0.119000
     41 HAM          3.0790    -3.2820    -1.5060 hc         1 D2R       0.050700
     42 HAMA         2.7930    -1.8070    -2.3950 hc         1 D2R       0.050700
     43 HAN          3.3040    -0.4540    -0.3610 hc         1 D2R       0.052200
     44 HANA         3.5270    -1.9160     0.5730 hc         1 D2R       0.052200
     45 HAO          5.4020    -2.6060    -0.9390 hc         1 D2R       0.014700
     46 HAOA         5.1780    -1.1700    -1.8940 hc         1 D2R       0.014700
     47 HAP         -0.0400    -1.7280     2.0770 hc         1 D2R       0.057700
     48 HAPA        -1.4780    -1.0080     2.7420 hc         1 D2R       0.057700
     49 CAB         -2.7620     1.1440     1.2810 c3         1 D2R      -0.064800
     50 CAP         -0.9240    -1.1420     1.8100 c3         1 D2R       0.027200
     51 OAT         -5.1970    -3.0670     0.6580 os         1 D2R      -0.348100
     52 CAH          0.1620    -2.3340    -0.6640 cg         1 D2R      -0.206000
@<TRIPOS>BOND
     1     1     2 ar  
     2     1     6 ar  
     3     2     3 ar  
     4     2     8 1   
     5     3     4 ar  
     6     4     5 ar  
     7     4    20 ar  
     8     5     6 ar  
     9     5    22 ar  
    10     6     9 1   
    11     7    27 1   
    12     7    28 1   
    13     7    29 1   
    14     7    51 1   
    15     8    33 1   
    16     8    34 1   
    17     9    35 1   
    18     9    36 1   
    19    10    21 1   
    20    11    21 1   
    21    12    17 1   
    22    12    52 3   
    23    13    14 ar  
    24    13    23 ar  
    25    13    37 1   
    26    14    24 ar  
    27    14    38 1   
    28    15    20 ar  
    29    15    25 ar  
    30    15    39 1   
    31    16    23 ar  
    32    16    26 ar  
    33    16    40 1   
    34    17    18 1   
    35    17    41 1   
    36    17    42 1   
    37    18    19 1   
    38    18    43 1   
    39    18    44 1   
    40    19    21 1   
    41    19    45 1   
    42    19    46 1   
    43    22    25 ar  
    44    22    49 1   
    45    23    51 1   
    46    24    26 ar  
    47    24    52 1   
    48    25    50 1   
    49    26    50 1   
    50    30    49 1   
    51    31    49 1   
    52    32    49 1   
    53    47    50 1   
    54    48    50 1   
@<TRIPOS>SUBSTRUCTURE
     1 D2R         1 TEMP              0 ****  ****    0 ROOT
