@<TRIPOS>MOLECULE
D2S
   28    29     1     0     0
SMALL
bcc


@<TRIPOS>ATOM
      1 C1           4.0100     0.5380    -0.3120 ca         1 D2S      -0.318000
      2 O1           3.3370    -1.3310    -1.6620 oh         1 D2S      -0.481100
      3 S1           0.7610    -1.7880    -0.6700 ss         1 D2S      -0.081900
      4 C2           3.0920    -0.4320    -0.6930 ca         1 D2S       0.202100
      5 S2          -0.8020    -1.7900     0.6360 ss         1 D2S      -0.081900
      6 C3           1.8460    -0.5090    -0.0680 ca         1 D2S      -0.070600
      7 O3           4.5410     2.4020     1.0970 oh         1 D2S      -0.489100
      8 C4           1.5380     0.4010     0.9300 ca         1 D2S      -0.051000
      9 C5           2.4450     1.3740     1.3190 ca         1 D2S      -0.191000
     10 C6           3.6870     1.4440     0.6940 ca         1 D2S       0.184100
     11 C7          -4.0290     0.5720     0.3130 ca         1 D2S      -0.318000
     12 C8          -3.1180    -0.4090     0.6830 ca         1 D2S       0.202100
     13 C9          -1.8780    -0.4960     0.0470 ca         1 D2S      -0.070600
     14 C10         -1.5690     0.4140    -0.9500 ca         1 D2S      -0.051000
     15 C11         -2.4690     1.3980    -1.3270 ca         1 D2S      -0.191000
     16 C12         -3.7050     1.4780    -0.6930 ca         1 D2S       0.184100
     17 H1           4.9770     0.5840    -0.8030 ha         1 D2S       0.133000
     18 HO1          4.2190    -1.2100    -2.0320 ho         1 D2S       0.429000
     19 HO3          5.3570     2.3700     0.5850 ho         1 D2S       0.427500
     20 H4           0.5750     0.3540     1.4230 ha         1 D2S       0.155000
     21 H5           2.1890     2.0760     2.1010 ha         1 D2S       0.153000
     22 HO5         -5.3640     2.4210    -0.5650 ho         1 D2S       0.427500
     23 H10         -0.6110     0.3600    -1.4500 ha         1 D2S       0.155000
     24 H11         -2.2120     2.1010    -2.1080 ha         1 D2S       0.153000
     25 H9          -4.2450    -1.1860     2.0230 ho         1 D2S       0.429000
     26 H7          -4.9920     0.6250     0.8120 ha         1 D2S       0.133000
     27 O4          -3.3640    -1.3090     1.6510 oh         1 D2S      -0.481100
     28 O5          -4.5530     2.4460    -1.0850 oh         1 D2S      -0.489100
@<TRIPOS>BOND
     1     1     4 ar  
     2     1    10 ar  
     3     1    17 1   
     4     2     4 1   
     5     2    18 1   
     6     3     5 1   
     7     3     6 1   
     8     4     6 ar  
     9     5    13 1   
    10     6     8 ar  
    11     7    10 1   
    12     7    19 1   
    13     8     9 ar  
    14     8    20 1   
    15     9    10 ar  
    16     9    21 1   
    17    11    12 ar  
    18    11    16 ar  
    19    11    26 1   
    20    12    13 ar  
    21    12    27 1   
    22    13    14 ar  
    23    14    15 ar  
    24    14    23 1   
    25    15    16 ar  
    26    15    24 1   
    27    16    28 1   
    28    22    28 1   
    29    25    27 1   
@<TRIPOS>SUBSTRUCTURE
     1 D2S         1 TEMP              0 ****  ****    0 ROOT
