@<TRIPOS>MOLECULE
D2S
   28    29     1     0     0
SMALL
No Charge or Current Charge


@<TRIPOS>ATOM
      1 C1           4.4950     0.2040    -0.2080 ca         1 D2S      -0.300000
      2 O1           3.5950    -1.6210    -1.4460 oh         1 D2S      -0.520100
      3 S1           0.6750    -1.1560    -0.7840 ss         1 D2S       0.045000
      4 C2           3.3900    -0.5470    -0.6360 ca         1 D2S       0.202100
      5 S2          -0.7110    -1.1430     0.7930 ss         1 D2S       0.045000
      6 C3           2.0880    -0.1950    -0.2300 ca         1 D2S      -0.197500
      7 O3           5.3710     2.0420     1.0410 oh         1 D2S      -0.528100
      8 C4           1.9010     0.9260     0.6050 ca         1 D2S      -0.033000
      9 C5           3.0110     1.6750     1.0310 ca         1 D2S      -0.173000
     10 C6           4.3020     1.3130     0.6250 ca         1 D2S       0.184100
     11 C7          -4.5210     0.2390     0.2020 ca         1 D2S      -0.300000
     12 C8          -3.4220    -0.5160     0.6370 ca         1 D2S       0.202100
     13 C9          -2.1170    -0.1770     0.2280 ca         1 D2S      -0.197500
     14 C10         -1.9220     0.9350    -0.6160 ca         1 D2S      -0.033000
     15 C11         -3.0260     1.6880    -1.0490 ca         1 D2S      -0.173000
     16 C12         -4.3200     1.3390    -0.6410 ca         1 D2S       0.184100
     17 H1           5.4980    -0.0730    -0.5220 ha         1 D2S       0.115000
     18 HO1          4.5570    -1.6970    -1.6090 ho         1 D2S       0.468000
     19 HO3          6.1790     1.6400     0.6590 ho         1 D2S       0.466500
     20 H4           0.9050     1.2240     0.9220 ha         1 D2S       0.137000
     21 H5           2.8680     2.5390     1.6740 ha         1 D2S       0.135000
     22 HO5         -6.1940     1.6790    -0.6780 ho         1 D2S       0.466500
     23 H10         -0.9230     1.2230    -0.9350 ha         1 D2S       0.137000
     24 H11         -2.8760     2.5450    -1.7000 ha         1 D2S       0.135000
     25 H9          -4.5980    -1.6490     1.6210 ho         1 D2S       0.468000
     26 H7          -5.5260    -0.0280     0.5180 ha         1 D2S       0.115000
     27 O4          -3.6340    -1.5820     1.4570 oh         1 D2S      -0.520100
     28 O5          -5.3830     2.0720    -1.0640 oh         1 D2S      -0.528100
@<TRIPOS>BOND
     1     1     4 ar  
     2     1    10 ar  
     3     1    17 1   
     4     2     4 1   
     5     2    18 1   
     6     3     5 1   
     7     3     6 1   
     8     4     6 ar  
     9     5    13 1   
    10     6     8 ar  
    11     7    10 1   
    12     7    19 1   
    13     8     9 ar  
    14     8    20 1   
    15     9    10 ar  
    16     9    21 1   
    17    11    12 ar  
    18    11    16 ar  
    19    11    26 1   
    20    12    13 ar  
    21    12    27 1   
    22    13    14 ar  
    23    14    15 ar  
    24    14    23 1   
    25    15    16 ar  
    26    15    24 1   
    27    16    28 1   
    28    22    28 1   
    29    25    27 1   
@<TRIPOS>SUBSTRUCTURE
     1 D2S         1 TEMP              0 ****  ****    0 ROOT
