@<TRIPOS>MOLECULE
D2T
   18    17     1     0     0
SMALL
No Charge or Current Charge


@<TRIPOS>ATOM
      1 N          -97.5100    16.9170   -38.8310 n8         1 D2T      -0.881800
      2 CA         -98.4340    16.3790   -37.7560 c3         1 D2T       0.046500
      3 C          -98.3850    14.8040   -37.4710 c          1 D2T       0.938600
      4 O          -99.3280    14.2620   -36.9030 o          1 D2T      -0.865300
      5 CB         -99.9110    16.8670   -37.9480 c3         1 D2T      -0.036600
      6 SB        -100.0380    18.7340   -38.1670 ss         1 D2T      -0.380200
      7 CG         100.6870    16.0690   -39.0480 c          1 D2T       0.945600
      8 OD1       -100.0920    15.6430   -40.0350 o          1 D2T      -0.837300
      9 OD2        101.8940    15.9000   -38.8970 o          1 D2T      -0.837300
     10 O1         -97.4000    14.1660   -37.8370 o          1 D2T      -0.865300
     11 H1         -96.5840    16.4970   -38.6970 hn         1 D2T       0.325300
     12 H2         -97.8230    16.5400   -39.7320 hn         1 D2T       0.325300
     13 H4         -98.0710    16.8370   -36.8270 h1         1 D2T      -0.003300
     14 H5        -100.4410    16.6390   -37.0160 h1         1 D2T       0.069700
     15 H6         -99.6080    20.4030   -36.4360 h1         1 D2T       0.024367
     16 H7        -100.1420    18.8510   -35.7260 h1         1 D2T       0.024367
     17 H8         -98.4620    19.0370   -36.3170 h1         1 D2T       0.024367
     18 CB1        -99.5090    19.3110   -36.4940 c3         1 D2T      -0.016000
@<TRIPOS>BOND
     1     1     2 1   
     2     1    11 1   
     3     1    12 1   
     4     2     3 1   
     5     2     5 1   
     6     2    13 1   
     7     3     4 1   
     8     3    10 1   
     9     5     6 1   
    10     5     7 1   
    11     5    14 1   
    12     6    18 1   
    13     7     8 1   
    14     7     9 1   
    15    15    18 1   
    16    16    18 1   
    17    17    18 1   
@<TRIPOS>SUBSTRUCTURE
     1 D2T         1 TEMP              0 ****  ****    0 ROOT
