@<TRIPOS>MOLECULE
D2T
   18    17     1     0     0
SMALL
bcc


@<TRIPOS>ATOM
      1 N          -97.7240    16.9670   -38.8680 n8         1 D2T      -0.881800
      2 CA         -98.4940    16.4320   -37.7580 c3         1 D2T       0.046500
      3 C          -98.2540    14.9320   -37.4190 c          1 D2T       0.938600
      4 O          -98.9940    14.4420   -36.5390 o          1 D2T      -0.865300
      5 CB         -99.9800    16.7450   -37.9020 c3         1 D2T      -0.036600
      6 SB        -100.3780    18.5320   -37.9160 ss         1 D2T      -0.380200
      7 CG        -100.6530    16.1550   -39.1680 c          1 D2T       0.945600
      8 OD1       -100.1040    15.1670   -39.6910 o          1 D2T      -0.837300
      9 OD2       -101.7030    16.7120   -39.5400 o          1 D2T      -0.837300
     10 O1         -97.2950    14.3660   -37.9800 o          1 D2T      -0.865300
     11 H1         -96.7650    16.6630   -38.7490 hn         1 D2T       0.325300
     12 H2         -98.0320    16.4950   -39.7110 hn         1 D2T       0.325300
     13 H4         -98.1480    16.9540   -36.8550 h1         1 D2T      -0.003300
     14 H5        -100.4820    16.3130   -37.0320 h1         1 D2T       0.069700
     15 H6         -99.7700    20.1650   -36.3120 h1         1 D2T       0.024367
     16 H7         -99.6980    18.5590   -35.5830 h1         1 D2T       0.024367
     17 H8         -98.3840    19.1220   -36.6360 h1         1 D2T       0.024367
     18 CB1        -99.4630    19.1330   -36.4800 c3         1 D2T      -0.016000
@<TRIPOS>BOND
     1     1     2 1   
     2     1    11 1   
     3     1    12 1   
     4     2     3 1   
     5     2     5 1   
     6     2    13 1   
     7     3     4 1   
     8     3    10 1   
     9     5     6 1   
    10     5     7 1   
    11     5    14 1   
    12     6    18 1   
    13     7     8 1   
    14     7     9 1   
    15    15    18 1   
    16    16    18 1   
    17    17    18 1   
@<TRIPOS>SUBSTRUCTURE
     1 D2T         1 TEMP              0 ****  ****    0 ROOT
