@<TRIPOS>MOLECULE
D2U
   77    81     1     0     0
SMALL
No Charge or Current Charge


@<TRIPOS>ATOM
      1 C1           2.8560    -3.4940    -1.9720 ca         1 D2U      -0.089300
      2 C2           1.5900    -2.9280    -1.7250 ca         1 D2U      -0.075500
      3 C3           1.4140    -1.9820    -0.6930 ca         1 D2U      -0.128600
      4 C4           2.5370    -1.5830     0.0670 ca         1 D2U      -0.075500
      5 C5           3.8050    -2.1390    -0.1760 ca         1 D2U      -0.089300
      6 C6           3.9580    -3.0990    -1.1910 ca         1 D2U      -0.105000
      7 C7           3.0300    -4.5250    -3.0760 c3         1 D2U      -0.043300
      8 C8           5.0110    -1.6930     0.6380 c3         1 D2U      -0.043300
      9 C9           0.0570    -1.3540    -0.4680 c          1 D2U       0.620700
     10 N10         -0.2340    -0.8650     0.8210 n          1 D2U      -0.400800
     11 C11         -1.2200     0.2490     1.0140 c3         1 D2U       0.020700
     12 C12         -0.7300     1.2540     2.0970 c3         1 D2U      -0.042100
     13 C13          0.7490     1.6040     1.9280 ca         1 D2U      -0.051300
     14 C14          1.2310     2.1040     0.7030 ca         1 D2U      -0.112000
     15 C15          2.6060     2.3170     0.5140 ca         1 D2U      -0.100500
     16 C16          3.5390     2.0460     1.5450 cp         1 D2U      -0.060000
     17 C17          3.0350     1.5760     2.7830 ca         1 D2U      -0.100500
     18 C18          1.6600     1.3580     2.9720 ca         1 D2U      -0.112000
     19 C19          5.0090     2.2280     1.3270 cp         1 D2U      -0.020000
     20 C20          5.6020     1.9410     0.0720 ca         1 D2U      -0.103500
     21 C21          6.9830     2.0970    -0.1330 ca         1 D2U      -0.114500
     22 C22          7.8020     2.5460     0.9150 ca         1 D2U      -0.118000
     23 C23          7.2380     2.8370     2.1680 ca         1 D2U      -0.114500
     24 C24          5.8560     2.6780     2.3720 ca         1 D2U      -0.103500
     25 C25          0.0720    -1.7100     2.0020 c3         1 D2U       0.094300
     26 O26         -0.7340    -1.1960    -1.3890 o          1 D2U      -0.587100
     27 C27         -2.6900    -0.2150     1.2290 c          1 D2U       0.586100
     28 O28         -3.4390     0.2870     2.0600 o          1 D2U      -0.652100
     29 N29         -3.0690    -1.2960     0.4610 ns         1 D2U      -0.444900
     30 C30         -4.4350    -1.8660     0.3860 c3         1 D2U      -0.035300
     31 C31         -4.3700    -3.4170     0.2630 c          1 D2U       0.716000
     32 C32         -5.2660    -1.2510    -0.7710 c3         1 D2U      -0.018200
     33 C33         -5.4080     0.2500    -0.6950 cc         1 D2U      -0.104400
     34 C34         -6.4270     0.9680    -0.0740 cd         1 D2U      -0.161100
     35 N35         -6.1610     2.3560    -0.1740 na         1 D2U      -0.227700
     36 C36         -4.9690     2.4660    -0.8640 ca         1 D2U      -0.051200
     37 C37         -4.4920     1.2320    -1.2060 ca         1 D2U      -0.093800
     38 C38         -4.2780     3.6380    -1.2040 ca         1 D2U      -0.144000
     39 C39         -3.0670     3.5150    -1.9170 ca         1 D2U      -0.107000
     40 C40         -2.5800     2.2370    -2.2800 ca         1 D2U      -0.170000
     41 C41         -3.3000     1.0750    -1.9280 ca         1 D2U      -0.050000
     42 O42         -3.6080    -3.9060    -0.5610 o          1 D2U      -0.720000
     43 O43         -5.0180    -4.0860     1.0570 o          1 D2U      -0.720000
     44 H1           0.7390    -3.2290    -2.3320 ha         1 D2U       0.132000
     45 H2           2.4350    -0.8140     0.8300 ha         1 D2U       0.132000
     46 H3           4.9380    -3.5320    -1.3800 ha         1 D2U       0.100000
     47 H4           2.8380    -5.5360    -2.6990 hc         1 D2U       0.039033
     48 H5           2.3390    -4.3410    -3.9080 hc         1 D2U       0.039033
     49 H6           4.0470    -4.5070    -3.4850 hc         1 D2U       0.039033
     50 H7           5.5000    -2.5500     1.1170 hc         1 D2U       0.039033
     51 H8           5.7530    -1.1980    -0.0000 hc         1 D2U       0.039033
     52 H9           4.7320    -0.9870     1.4300 hc         1 D2U       0.039033
     53 H10         -1.2540     0.8090     0.0720 h1         1 D2U       0.088700
     54 H11         -1.3380     2.1650     2.0430 hc         1 D2U       0.072200
     55 H12         -0.9090     0.8250     3.0910 hc         1 D2U       0.072200
     56 H13          0.5430     2.3050    -0.1150 ha         1 D2U       0.120000
     57 H14          2.9510     2.6940    -0.4450 ha         1 D2U       0.108500
     58 H15          3.7190     1.3450     3.5950 ha         1 D2U       0.108500
     59 H16          1.3090     0.9670     3.9240 ha         1 D2U       0.120000
     60 H17          4.9870     1.5760    -0.7480 ha         1 D2U       0.117500
     61 H18          7.4190     1.8660    -1.1030 ha         1 D2U       0.108000
     62 H19          8.8720     2.6680     0.7580 ha         1 D2U       0.106000
     63 H20          7.8700     3.1870     2.9810 ha         1 D2U       0.108000
     64 H21          5.4370     2.9180     3.3450 ha         1 D2U       0.117500
     65 H22          0.9480    -1.3140     2.5300 h1         1 D2U       0.041033
     66 H23         -0.7820    -1.7220     2.6910 h1         1 D2U       0.041033
     67 H24          0.2800    -2.7410     1.6890 h1         1 D2U       0.041033
     68 H25         -2.3710    -1.6390    -0.1940 hn         1 D2U       0.343500
     69 H26         -4.9520    -1.6460     1.3290 h1         1 D2U       0.062700
     70 H27         -4.8080    -1.5260    -1.7280 hc         1 D2U       0.054200
     71 H28         -6.2620    -1.7090    -0.7690 hc         1 D2U       0.054200
     72 H29         -7.3040     0.5920     0.4440 h4         1 D2U       0.210000
     73 H30         -6.7250     3.1160     0.1940 hn         1 D2U       0.336000
     74 H31         -4.6620     4.6160    -0.9240 ha         1 D2U       0.099000
     75 H32         -2.5070     4.4060    -2.1920 ha         1 D2U       0.096000
     76 H33         -1.6490     2.1480    -2.8340 ha         1 D2U       0.102000
     77 H34         -2.9370     0.0890    -2.2060 ha         1 D2U       0.129000
@<TRIPOS>BOND
     1     1     2 ar  
     2     1     6 ar  
     3     1     7 1   
     4     2     3 ar  
     5     2    44 1   
     6     3     4 ar  
     7     3     9 1   
     8     4     5 ar  
     9     4    45 1   
    10     5     6 ar  
    11     5     8 1   
    12     6    46 1   
    13     7    47 1   
    14     7    48 1   
    15     7    49 1   
    16     8    50 1   
    17     8    51 1   
    18     8    52 1   
    19     9    10 1   
    20     9    26 2   
    21    10    11 1   
    22    10    25 1   
    23    11    12 1   
    24    11    27 1   
    25    11    53 1   
    26    12    13 1   
    27    12    54 1   
    28    12    55 1   
    29    13    14 ar  
    30    13    18 ar  
    31    14    15 ar  
    32    14    56 1   
    33    15    16 ar  
    34    15    57 1   
    35    16    17 ar  
    36    16    19 1   
    37    17    18 ar  
    38    17    58 1   
    39    18    59 1   
    40    19    20 ar  
    41    19    24 ar  
    42    20    21 ar  
    43    20    60 1   
    44    21    22 ar  
    45    21    61 1   
    46    22    23 ar  
    47    22    62 1   
    48    23    24 ar  
    49    23    63 1   
    50    24    64 1   
    51    25    65 1   
    52    25    66 1   
    53    25    67 1   
    54    27    28 2   
    55    27    29 1   
    56    29    30 1   
    57    29    68 1   
    58    30    31 1   
    59    30    32 1   
    60    30    69 1   
    61    31    42 1   
    62    31    43 1   
    63    32    33 1   
    64    32    70 1   
    65    32    71 1   
    66    33    34 2   
    67    33    37 1   
    68    34    35 1   
    69    34    72 1   
    70    35    36 1   
    71    35    73 1   
    72    36    37 ar  
    73    36    38 ar  
    74    37    41 ar  
    75    38    39 ar  
    76    38    74 1   
    77    39    40 ar  
    78    39    75 1   
    79    40    41 ar  
    80    40    76 1   
    81    41    77 1   
@<TRIPOS>SUBSTRUCTURE
     1 D2U         1 TEMP              0 ****  ****    0 ROOT
