@<TRIPOS>MOLECULE
D2U
   77    81     1     0     0
SMALL
bcc


@<TRIPOS>ATOM
      1 C1           3.1640    -4.0500    -1.1870 ca         1 D2U      -0.089300
      2 C2           1.9140    -3.4450    -1.2080 ca         1 D2U      -0.093500
      3 C3           1.6780    -2.2930    -0.4630 ca         1 D2U      -0.128600
      4 C4           2.7020    -1.7210     0.2810 ca         1 D2U      -0.093500
      5 C5           3.9730    -2.2890     0.2890 ca         1 D2U      -0.089300
      6 C6           4.1820    -3.4530    -0.4420 ca         1 D2U      -0.123000
      7 C7           3.4200    -5.3180    -1.9490 c3         1 D2U      -0.043300
      8 C8           5.0820    -1.6510     1.0740 c3         1 D2U      -0.043300
      9 C9           0.3730    -1.5760    -0.5880 c          1 D2U       0.687700
     10 N10         -0.2580    -1.2350     0.5580 n          1 D2U      -0.467800
     11 C11         -1.2620    -0.1820     0.5240 c3         1 D2U       0.020700
     12 C12         -0.9330     0.9450     1.5060 c3         1 D2U      -0.042100
     13 C13          0.4880     1.4070     1.3390 ca         1 D2U      -0.051300
     14 C14          0.9520     1.8790     0.1120 ca         1 D2U      -0.130000
     15 C15          2.2820     2.2160    -0.0690 ca         1 D2U      -0.118500
     16 C16          3.2010     2.1030     0.9770 cp         1 D2U      -0.060000
     17 C17          2.7300     1.6690     2.2150 ca         1 D2U      -0.118500
     18 C18          1.3970     1.3260     2.3890 ca         1 D2U      -0.130000
     19 C19          4.6300     2.4090     0.7730 cp         1 D2U      -0.020000
     20 C20          5.2690     2.0600    -0.4180 ca         1 D2U      -0.121500
     21 C21          6.6170     2.3270    -0.6070 ca         1 D2U      -0.132500
     22 C22          7.3530     2.9500     0.3920 ca         1 D2U      -0.136000
     23 C23          6.7290     3.3040     1.5810 ca         1 D2U      -0.132500
     24 C24          5.3810     3.0360     1.7690 ca         1 D2U      -0.121500
     25 C25          0.0060    -1.8740     1.8350 c3         1 D2U       0.094300
     26 O26         -0.0480    -1.2730    -1.6970 o          1 D2U      -0.587100
     27 C27         -2.6730    -0.7400     0.7440 c          1 D2U       0.653100
     28 O28         -3.2470    -0.6390     1.8190 o          1 D2U      -0.652100
     29 N29         -3.1860    -1.3360    -0.3380 ns         1 D2U      -0.511900
     30 C30         -4.5470    -1.7950    -0.4640 c3         1 D2U      -0.035300
     31 C31         -4.6280    -3.0330    -1.3830 c          1 D2U       0.926600
     32 C32         -5.4520    -0.6800    -1.0400 c3         1 D2U      -0.018200
     33 C33         -5.2920     0.6230    -0.3330 cc         1 D2U      -0.104400
     34 C34         -5.9850     1.0590     0.7600 cd         1 D2U      -0.111100
     35 N35         -5.4770     2.2490     1.2010 na         1 D2U      -0.177400
     36 C36         -4.4390     2.6210     0.3990 ca         1 D2U      -0.051200
     37 C37         -4.2940     1.6200    -0.5880 ca         1 D2U      -0.093800
     38 C38         -3.6150     3.7460     0.4430 ca         1 D2U      -0.162000
     39 C39         -2.6350     3.8590    -0.5240 ca         1 D2U      -0.125000
     40 C40         -2.4780     2.8790    -1.5200 ca         1 D2U      -0.188000
     41 C41         -3.2960     1.7660    -1.5580 ca         1 D2U      -0.068000
     42 O42         -3.6250    -3.2930    -2.0740 o          1 D2U      -0.825300
     43 O43         -5.7200    -3.6310    -1.3770 o          1 D2U      -0.825300
     44 H1           1.1180    -3.8770    -1.8030 ha         1 D2U       0.150000
     45 H2           2.5230    -0.8050     0.8330 ha         1 D2U       0.150000
     46 H3           5.1680    -3.9040    -0.4450 ha         1 D2U       0.118000
     47 H4           3.4090    -6.1830    -1.2820 hc         1 D2U       0.039033
     48 H5           2.6620    -5.4840    -2.7130 hc         1 D2U       0.039033
     49 H6           4.3950    -5.3010    -2.4360 hc         1 D2U       0.039033
     50 H7           4.9460    -1.8100     2.1460 hc         1 D2U       0.039033
     51 H8           6.0540    -2.0590     0.8000 hc         1 D2U       0.039033
     52 H9           5.1110    -0.5730     0.9140 hc         1 D2U       0.039033
     53 H10         -1.2340     0.2370    -0.4820 h1         1 D2U       0.088700
     54 H11         -1.6310     1.7640     1.3070 hc         1 D2U       0.072200
     55 H12         -1.1080     0.6310     2.5350 hc         1 D2U       0.072200
     56 H13          0.2630     1.9850    -0.7180 ha         1 D2U       0.138000
     57 H14          2.6070     2.5820    -1.0350 ha         1 D2U       0.126500
     58 H15          3.4170     1.5610     3.0460 ha         1 D2U       0.126500
     59 H16          1.0660     0.9700     3.3580 ha         1 D2U       0.138000
     60 H17          4.7150     1.5530    -1.1980 ha         1 D2U       0.135500
     61 H18          7.0950     2.0400    -1.5350 ha         1 D2U       0.126000
     62 H19          8.4050     3.1590     0.2450 ha         1 D2U       0.124000
     63 H20          7.2910     3.7960     2.3650 ha         1 D2U       0.126000
     64 H21          4.9040     3.3340     2.6950 ha         1 D2U       0.135500
     65 H22          0.6900    -1.3000     2.4610 h1         1 D2U       0.041033
     66 H23         -0.9320    -1.9920     2.3760 h1         1 D2U       0.041033
     67 H24          0.4240    -2.8660     1.6880 h1         1 D2U       0.041033
     68 H25         -2.6100    -1.4310    -1.1630 hn         1 D2U       0.343500
     69 H26         -4.9150    -2.0520     0.5310 h1         1 D2U       0.062700
     70 H27         -5.2140    -0.5500    -2.1020 hc         1 D2U       0.054200
     71 H28         -6.4860    -1.0220    -0.9910 hc         1 D2U       0.054200
     72 H29         -6.8110     0.5940     1.2760 h4         1 D2U       0.160000
     73 H30         -5.8410     2.7790     1.9740 hn         1 D2U       0.285700
     74 H31         -3.7360     4.5020     1.2080 ha         1 D2U       0.117000
     75 H32         -1.9740     4.7160    -0.5140 ha         1 D2U       0.114000
     76 H33         -1.7020     2.9990    -2.2650 ha         1 D2U       0.120000
     77 H34         -3.1640     1.0180    -2.3310 ha         1 D2U       0.147000
@<TRIPOS>BOND
     1     1     2 ar  
     2     1     6 ar  
     3     1     7 1   
     4     2     3 ar  
     5     2    44 1   
     6     3     4 ar  
     7     3     9 1   
     8     4     5 ar  
     9     4    45 1   
    10     5     6 ar  
    11     5     8 1   
    12     6    46 1   
    13     7    47 1   
    14     7    48 1   
    15     7    49 1   
    16     8    50 1   
    17     8    51 1   
    18     8    52 1   
    19     9    10 1   
    20     9    26 2   
    21    10    11 1   
    22    10    25 1   
    23    11    12 1   
    24    11    27 1   
    25    11    53 1   
    26    12    13 1   
    27    12    54 1   
    28    12    55 1   
    29    13    14 ar  
    30    13    18 ar  
    31    14    15 ar  
    32    14    56 1   
    33    15    16 ar  
    34    15    57 1   
    35    16    17 ar  
    36    16    19 1   
    37    17    18 ar  
    38    17    58 1   
    39    18    59 1   
    40    19    20 ar  
    41    19    24 ar  
    42    20    21 ar  
    43    20    60 1   
    44    21    22 ar  
    45    21    61 1   
    46    22    23 ar  
    47    22    62 1   
    48    23    24 ar  
    49    23    63 1   
    50    24    64 1   
    51    25    65 1   
    52    25    66 1   
    53    25    67 1   
    54    27    28 2   
    55    27    29 1   
    56    29    30 1   
    57    29    68 1   
    58    30    31 1   
    59    30    32 1   
    60    30    69 1   
    61    31    42 1   
    62    31    43 1   
    63    32    33 1   
    64    32    70 1   
    65    32    71 1   
    66    33    34 2   
    67    33    37 1   
    68    34    35 1   
    69    34    72 1   
    70    35    36 1   
    71    35    73 1   
    72    36    37 ar  
    73    36    38 ar  
    74    37    41 ar  
    75    38    39 ar  
    76    38    74 1   
    77    39    40 ar  
    78    39    75 1   
    79    40    41 ar  
    80    40    76 1   
    81    41    77 1   
@<TRIPOS>SUBSTRUCTURE
     1 D2U         1 TEMP              0 ****  ****    0 ROOT
