@<TRIPOS>MOLECULE
D2V
   73    75     1     0     0
SMALL
bcc


@<TRIPOS>ATOM
      1 C1B          8.4950    -2.3010    -0.0280 c3         1 D2V      -0.086600
      2 C1W          7.2680    -1.6550     0.6100 c3         1 D2V      -0.054700
      3 C1C          7.6990    -0.4720     1.4720 c3         1 D2V      -0.086600
      4 C1X          6.2160    -1.2240    -0.4320 c3         1 D2V      -0.023500
      5 C1D          5.7980    -2.3720    -1.3550 c3         1 D2V      -0.083100
      6 C1J          4.9970    -0.6760     0.2490 c2         1 D2V      -0.165200
      7 C1K          4.4420     0.5100     0.0300 c2         1 D2V      -0.169200
      8 C1Y          3.2080     1.0180     0.7210 c3         1 D2V      -0.017500
      9 C1E          3.5290     2.3410     1.4170 c3         1 D2V      -0.082100
     10 C2B          2.0490     1.1100    -0.2830 c5         1 D2V      -0.049700
     11 C1Q          1.7580    -0.2610    -0.9440 c5         1 D2V      -0.075400
     12 C1P          0.2450    -0.3180    -1.2290 c5         1 D2V      -0.071400
     13 C2A         -0.2320     1.0980    -0.9400 c5         1 D2V      -0.035500
     14 C2C          0.6660     1.5790     0.2270 c5         1 D2V      -0.036000
     15 C1F          0.3040     0.8660     1.5320 c3         1 D2V      -0.079100
     16 C1R          0.4740     3.0920     0.3600 c6         1 D2V      -0.062400
     17 C1L         -0.9960     3.4590     0.5670 c6         1 D2V      -0.071400
     18 C1M         -1.9150     2.8640    -0.5060 c6         1 D2V      -0.042200
     19 C1V         -1.6780     1.3900    -0.6940 c2         1 D2V      -0.079400
     20 C1I         -2.6220     0.4360    -0.6500 ce         1 D2V      -0.141000
     21 C1H         -4.0290     0.6350    -0.3600 ce         1 D2V      -0.115000
     22 C1U         -5.0020    -0.2900    -0.4380 cf         1 D2V      -0.076200
     23 C1S         -6.4120     0.0220    -0.0090 c6         1 D2V      -0.073200
     24 C1Z         -6.9230    -0.9990     1.0100 c6         1 D2V       0.150100
     25 O1G         -8.2710    -0.7640     1.3550 oh         1 D2V      -0.596800
     26 C1O         -6.8170    -2.4030     0.4390 c6         1 D2V      -0.070400
     27 C1N         -5.3740    -2.7210     0.0480 c6         1 D2V      -0.039200
     28 C1T         -4.8070    -1.6840    -0.8870 cf         1 D2V      -0.079200
     29 C1A         -4.2270    -2.0040    -2.0440 c2         1 D2V      -0.209000
     30 H1B          9.2530    -2.5110     0.7290 hc         1 D2V       0.032367
     31 H1BA         8.2630    -3.2430    -0.5230 hc         1 D2V       0.032367
     32 H1BB         8.9450    -1.6350    -0.7680 hc         1 D2V       0.032367
     33 H1W          6.7920    -2.3980     1.2640 hc         1 D2V       0.044700
     34 H1C          6.8540     0.0040     1.9680 hc         1 D2V       0.032367
     35 H1CA         8.4060    -0.7860     2.2430 hc         1 D2V       0.032367
     36 H1CB         8.1930     0.2880     0.8620 hc         1 D2V       0.032367
     37 H1X          6.6610    -0.4320    -1.0490 hc         1 D2V       0.047700
     38 H1D          5.3890    -3.2070    -0.7820 hc         1 D2V       0.033367
     39 H1DA         5.0280    -2.0410    -2.0520 hc         1 D2V       0.033367
     40 H1DB         6.6350    -2.7490    -1.9440 hc         1 D2V       0.033367
     41 H1J          4.5280    -1.3450     0.9720 ha         1 D2V       0.114000
     42 H1K          4.9000     1.1840    -0.6940 ha         1 D2V       0.116000
     43 H1Y          2.9370     0.2820     1.4880 hc         1 D2V       0.049700
     44 H1E          3.6740     3.1460     0.6930 hc         1 D2V       0.034033
     45 H1EA         2.7320     2.6470     2.0950 hc         1 D2V       0.034033
     46 H1EB         4.4420     2.2540     2.0070 hc         1 D2V       0.034033
     47 H2B          2.3500     1.8200    -1.0670 hc         1 D2V       0.045700
     48 H1Q          2.3510    -0.3880    -1.8510 hc         1 D2V       0.043200
     49 H1QA         2.0550    -1.0740    -0.2780 hc         1 D2V       0.043200
     50 H1P          0.0170    -0.6240    -2.2520 hc         1 D2V       0.044200
     51 H1PA        -0.2390    -1.0440    -0.5730 hc         1 D2V       0.044200
     52 H2A          0.0680     1.7150    -1.8020 hc         1 D2V       0.052700
     53 H1F          0.8990     1.2500     2.3640 hc         1 D2V       0.034033
     54 H1FA        -0.7450     1.0010     1.7970 hc         1 D2V       0.034033
     55 H1FB         0.4820    -0.2090     1.4760 hc         1 D2V       0.034033
     56 H1R          1.0620     3.5020     1.1850 hc         1 D2V       0.040700
     57 H1RA         0.8440     3.5730    -0.5530 hc         1 D2V       0.040700
     58 H1L         -1.3270     3.1240     1.5530 hc         1 D2V       0.040200
     59 H1LA        -1.1050     4.5460     0.5660 hc         1 D2V       0.040200
     60 H1M         -2.9540     3.0920    -0.2690 hc         1 D2V       0.045700
     61 H1MA        -1.7000     3.3620    -1.4590 hc         1 D2V       0.045700
     62 H1I         -2.3170    -0.5870    -0.8370 ha         1 D2V       0.129000
     63 H1H         -4.3270     1.6180    -0.0080 ha         1 D2V       0.117000
     64 H1S         -6.4640     1.0320     0.4050 hc         1 D2V       0.052200
     65 H1SA        -7.0790    -0.0090    -0.8790 hc         1 D2V       0.052200
     66 H1Z         -6.2800    -0.9410     1.9030 h1         1 D2V       0.030700
     67 HO1G        -8.3260     0.0980     1.7810 ho         1 D2V       0.402000
     68 H1O         -7.1700    -3.1330     1.1710 hc         1 D2V       0.054700
     69 H1OA        -7.4640    -2.4850    -0.4400 hc         1 D2V       0.054700
     70 H1N         -4.7610    -2.7450     0.9560 hc         1 D2V       0.048700
     71 H1NA        -5.3120    -3.7140    -0.4010 hc         1 D2V       0.048700
     72 H1A         -3.8490    -1.2500    -2.7220 ha         1 D2V       0.116500
     73 H1AA        -4.1230    -3.0370    -2.3530 ha         1 D2V       0.116500
@<TRIPOS>BOND
     1     1     2 1   
     2     1    30 1   
     3     1    31 1   
     4     1    32 1   
     5     2     3 1   
     6     2     4 1   
     7     2    33 1   
     8     3    34 1   
     9     3    35 1   
    10     3    36 1   
    11     4     5 1   
    12     4     6 1   
    13     4    37 1   
    14     5    38 1   
    15     5    39 1   
    16     5    40 1   
    17     6     7 2   
    18     6    41 1   
    19     7     8 1   
    20     7    42 1   
    21     8     9 1   
    22     8    10 1   
    23     8    43 1   
    24     9    44 1   
    25     9    45 1   
    26     9    46 1   
    27    10    11 1   
    28    10    14 1   
    29    10    47 1   
    30    11    12 1   
    31    11    48 1   
    32    11    49 1   
    33    12    13 1   
    34    12    50 1   
    35    12    51 1   
    36    13    14 1   
    37    13    19 1   
    38    13    52 1   
    39    14    15 1   
    40    14    16 1   
    41    15    53 1   
    42    15    54 1   
    43    15    55 1   
    44    16    17 1   
    45    16    56 1   
    46    16    57 1   
    47    17    18 1   
    48    17    58 1   
    49    17    59 1   
    50    18    19 1   
    51    18    60 1   
    52    18    61 1   
    53    19    20 2   
    54    20    21 1   
    55    20    62 1   
    56    21    22 2   
    57    21    63 1   
    58    22    23 1   
    59    22    28 1   
    60    23    24 1   
    61    23    64 1   
    62    23    65 1   
    63    24    25 1   
    64    24    26 1   
    65    24    66 1   
    66    25    67 1   
    67    26    27 1   
    68    26    68 1   
    69    26    69 1   
    70    27    28 1   
    71    27    70 1   
    72    27    71 1   
    73    28    29 2   
    74    29    72 1   
    75    29    73 1   
@<TRIPOS>SUBSTRUCTURE
     1 D2V         1 TEMP              0 ****  ****    0 ROOT
