@<TRIPOS>MOLECULE
D2V
   73    75     1     0     0
SMALL
No Charge or Current Charge


@<TRIPOS>ATOM
      1 C1B          8.7730    -2.1050    -0.2490 c3         1 D2V      -0.086600
      2 C1W          7.5720    -1.4430     0.4720 c3         1 D2V      -0.054700
      3 C1C          7.9700    -0.0300     0.9720 c3         1 D2V      -0.086600
      4 C1X          6.2770    -1.4100    -0.4020 c3         1 D2V      -0.023500
      5 C1D          5.8230    -2.8060    -0.8900 c3         1 D2V      -0.083100
      6 C1J          5.1270    -0.7460     0.3330 c2         1 D2V      -0.215200
      7 C1K          4.4930     0.3690    -0.0640 c2         1 D2V      -0.219200
      8 C1Y          3.3390     1.0300     0.6670 c3         1 D2V      -0.017500
      9 C1E          3.7770     2.4420     1.1130 c3         1 D2V      -0.082100
     10 C2B          2.0340     0.9720    -0.1930 c5         1 D2V      -0.049700
     11 C1Q          1.6560    -0.5030    -0.6060 c5         1 D2V      -0.075400
     12 C1P          0.1000    -0.5320    -0.7430 c5         1 D2V      -0.071400
     13 C2A         -0.2590     0.9800    -0.7200 c5         1 D2V      -0.035500
     14 C2C          0.6820     1.5210     0.4110 c5         1 D2V      -0.036000
     15 C1F          0.3900     0.9530     1.8450 c3         1 D2V      -0.079100
     16 C1R          0.5420     3.0800     0.4550 c6         1 D2V      -0.062400
     17 C1L         -0.9180     3.5280     0.7470 c6         1 D2V      -0.071400
     18 C1M         -1.9450     2.8890    -0.2240 c6         1 D2V      -0.042200
     19 C1V         -1.7170     1.3840    -0.4090 c2         1 D2V      -0.079400
     20 C1I         -2.6830     0.4230    -0.4290 ce         1 D2V      -0.191000
     21 C1H         -4.1240     0.6340    -0.1930 ce         1 D2V      -0.165000
     22 C1U         -5.1250    -0.2670    -0.4340 cf         1 D2V      -0.076200
     23 C1S         -6.5760     0.0820    -0.0430 c6         1 D2V      -0.073200
     24 C1Z         -7.2610    -1.0760     0.7220 c6         1 D2V       0.173300
     25 O1G         -8.6300    -0.7520     0.9860 oh         1 D2V      -0.659000
     26 C1O         -7.1780    -2.3830    -0.0970 c6         1 D2V      -0.070400
     27 C1N         -5.7080    -2.7570    -0.3900 c6         1 D2V      -0.039200
     28 C1T         -4.9450    -1.5910    -1.0460 cf         1 D2V      -0.079200
     29 C1A         -4.2030    -1.7980    -2.1580 c2         1 D2V      -0.309000
     30 H1B          9.6740    -2.0560     0.3740 hc         1 D2V       0.032367
     31 H1BA         8.5800    -3.1640    -0.4560 hc         1 D2V       0.032367
     32 H1BB         8.9870    -1.5980    -1.1980 hc         1 D2V       0.032367
     33 H1W          7.3570    -2.0480     1.3620 hc         1 D2V       0.044700
     34 H1C          7.1830     0.4090     1.5960 hc         1 D2V       0.032367
     35 H1CA         8.8820    -0.0760     1.5790 hc         1 D2V       0.032367
     36 H1CB         8.1560     0.6440     0.1270 hc         1 D2V       0.032367
     37 H1X          6.5050    -0.8210    -1.3000 hc         1 D2V       0.047700
     38 H1D          5.6800    -3.4890    -0.0430 hc         1 D2V       0.033367
     39 H1DA         4.8720    -2.7300    -1.4310 hc         1 D2V       0.033367
     40 H1DB         6.5550    -3.2480    -1.5750 hc         1 D2V       0.033367
     41 H1J          4.8270    -1.2530     1.2520 ha         1 D2V       0.164000
     42 H1K          4.7930     0.8750    -0.9840 ha         1 D2V       0.166000
     43 H1Y          3.1570     0.4620     1.5870 hc         1 D2V       0.049700
     44 H1E          3.7540     3.1470     0.2740 hc         1 D2V       0.034033
     45 H1EA         3.1340     2.8170     1.9160 hc         1 D2V       0.034033
     46 H1EB         4.7990     2.4180     1.5110 hc         1 D2V       0.034033
     47 H2B          2.2720     1.5380    -1.1020 hc         1 D2V       0.045700
     48 H1Q          2.1470    -0.7810    -1.5460 hc         1 D2V       0.043200
     49 H1QA         1.9850    -1.2350     0.1400 hc         1 D2V       0.043200
     50 H1P         -0.2230    -1.0210    -1.6690 hc         1 D2V       0.044200
     51 H1PA        -0.3480    -1.0870     0.0890 hc         1 D2V       0.044200
     52 H2A          0.0070     1.4220    -1.6890 hc         1 D2V       0.052700
     53 H1F          0.9760     1.4840     2.6040 hc         1 D2V       0.034033
     54 H1FA        -0.6660     1.0490     2.1210 hc         1 D2V       0.034033
     55 H1FB         0.6470    -0.1070     1.9420 hc         1 D2V       0.034033
     56 H1R          1.1950     3.5170     1.2180 hc         1 D2V       0.040700
     57 H1RA         0.8640     3.5070    -0.5040 hc         1 D2V       0.040700
     58 H1L         -1.1880     3.2770     1.7810 hc         1 D2V       0.040200
     59 H1LA        -0.9860     4.6230     0.6820 hc         1 D2V       0.040200
     60 H1M         -2.9550     3.1210     0.1290 hc         1 D2V       0.045700
     61 H1MA        -1.8530     3.3730    -1.2050 hc         1 D2V       0.045700
     62 H1I         -2.4210    -0.6120    -0.6290 ha         1 D2V       0.179000
     63 H1H         -4.4140     1.5830     0.2530 ha         1 D2V       0.167000
     64 H1S         -6.6000     0.9900     0.5740 hc         1 D2V       0.052200
     65 H1SA        -7.1410     0.3130    -0.9560 hc         1 D2V       0.052200
     66 H1Z         -6.7270    -1.2290     1.6720 h1         1 D2V       0.030700
     67 HO1G        -8.6240     0.0380     1.5700 ho         1 D2V       0.441000
     68 H1O         -7.6660    -3.2010     0.4500 hc         1 D2V       0.054700
     69 H1OA        -7.7240    -2.2660    -1.0430 hc         1 D2V       0.054700
     70 H1N         -5.2020    -3.0340     0.5450 hc         1 D2V       0.048700
     71 H1NA        -5.6800    -3.6470    -1.0330 hc         1 D2V       0.048700
     72 H1A         -3.6910    -0.9740    -2.6560 ha         1 D2V       0.166500
     73 H1AA        -4.1040    -2.7880    -2.6020 ha         1 D2V       0.166500
@<TRIPOS>BOND
     1     1     2 1   
     2     1    30 1   
     3     1    31 1   
     4     1    32 1   
     5     2     3 1   
     6     2     4 1   
     7     2    33 1   
     8     3    34 1   
     9     3    35 1   
    10     3    36 1   
    11     4     5 1   
    12     4     6 1   
    13     4    37 1   
    14     5    38 1   
    15     5    39 1   
    16     5    40 1   
    17     6     7 2   
    18     6    41 1   
    19     7     8 1   
    20     7    42 1   
    21     8     9 1   
    22     8    10 1   
    23     8    43 1   
    24     9    44 1   
    25     9    45 1   
    26     9    46 1   
    27    10    11 1   
    28    10    14 1   
    29    10    47 1   
    30    11    12 1   
    31    11    48 1   
    32    11    49 1   
    33    12    13 1   
    34    12    50 1   
    35    12    51 1   
    36    13    14 1   
    37    13    19 1   
    38    13    52 1   
    39    14    15 1   
    40    14    16 1   
    41    15    53 1   
    42    15    54 1   
    43    15    55 1   
    44    16    17 1   
    45    16    56 1   
    46    16    57 1   
    47    17    18 1   
    48    17    58 1   
    49    17    59 1   
    50    18    19 1   
    51    18    60 1   
    52    18    61 1   
    53    19    20 2   
    54    20    21 1   
    55    20    62 1   
    56    21    22 2   
    57    21    63 1   
    58    22    23 1   
    59    22    28 1   
    60    23    24 1   
    61    23    64 1   
    62    23    65 1   
    63    24    25 1   
    64    24    26 1   
    65    24    66 1   
    66    25    67 1   
    67    26    27 1   
    68    26    68 1   
    69    26    69 1   
    70    27    28 1   
    71    27    70 1   
    72    27    71 1   
    73    28    29 2   
    74    29    72 1   
    75    29    73 1   
@<TRIPOS>SUBSTRUCTURE
     1 D2V         1 TEMP              0 ****  ****    0 ROOT
