@<TRIPOS>MOLECULE
D2W
   63    66     1     0     0
SMALL
abcg2


@<TRIPOS>ATOM
      1 O14         -0.0760    -4.3750     0.5580 o          1 D2W      -0.608100
      2 C13         -0.0620    -3.2020     0.2120 c          1 D2W       0.617700
      3 C15         -1.3160    -2.4340    -0.0300 ca         1 D2W      -0.199600
      4 C28         -2.4940    -2.8660     0.5820 ca         1 D2W      -0.031500
      5 C27         -3.6720    -2.1670     0.4270 ca         1 D2W      -0.186500
      6 C26         -3.7110    -1.0160    -0.3670 ca         1 D2W       0.171100
      7 O29         -4.8940    -0.3930    -0.4550 os         1 D2W      -0.323100
      8 C30         -4.9830     0.8110    -1.1990 c3         1 D2W       0.164600
      9 C31         -6.4010     1.3290    -1.1130 c3         1 D2W       0.166800
     10 N32         -6.8530     1.6050     0.2340 n3         1 D2W      -0.700600
     11 C34         -6.1050     2.6670     0.8690 c3         1 D2W       0.149100
     12 C33         -8.2720     1.8890     0.2460 c3         1 D2W       0.149100
     13 C25         -2.5490    -0.5930    -1.0100 ca         1 D2W      -0.186500
     14 C24         -1.3690    -1.2980    -0.8320 ca         1 D2W      -0.031500
     15 N12          1.0780    -2.5060     0.0400 ns         1 D2W      -0.499900
     16 C11          2.3820    -3.0260     0.3770 c3         1 D2W       0.112000
     17 C9           3.4470    -2.1420    -0.2510 c6         1 D2W       0.112300
     18 C8           4.8150    -2.3600     0.3600 c6         1 D2W       0.124600
     19 O7           5.7520    -1.4500    -0.1920 os         1 D2W      -0.329100
     20 C6           5.3190    -0.1760    -0.3440 ca         1 D2W       0.052100
     21 C3           6.2530     0.8140    -0.6140 ca         1 D2W      -0.096000
     22 C2           5.8360     2.1220    -0.8090 ca         1 D2W      -0.114000
     23 O10          3.0440    -0.8030    -0.0060 os         1 D2W      -0.332100
     24 C5           3.9630     0.1510    -0.2570 ca         1 D2W       0.096100
     25 C4           3.5340     1.4630    -0.4710 cp         1 D2W      -0.144500
     26 C1           4.4890     2.4430    -0.7380 ca         1 D2W      -0.096000
     27 C16          2.0940     1.8100    -0.4700 cp         1 D2W       0.457500
     28 N21          1.3290     1.3380     0.5220 nb         1 D2W      -0.747000
     29 C20          0.0510     1.6470     0.5440 ca         1 D2W       0.588300
     30 O22         -0.7220     1.1990     1.5330 os         1 D2W      -0.457300
     31 C23         -0.1510     0.3380     2.5030 c3         1 D2W       0.159900
     32 C19         -0.5680     2.4450    -0.4280 ca         1 D2W      -0.192000
     33 C18          0.2220     2.9240    -1.4480 ca         1 D2W      -0.049000
     34 C17          1.5790     2.6070    -1.4800 ca         1 D2W      -0.198000
     35 H1          -2.4830    -3.7520     1.2030 ha         1 D2W       0.124500
     36 H2          -4.5750    -2.5000     0.9230 ha         1 D2W       0.124500
     37 H3          -4.2650     1.5470    -0.8200 h1         1 D2W       0.034700
     38 H4          -4.7400     0.6370    -2.2530 h1         1 D2W       0.034700
     39 H5          -6.4490     2.2210    -1.7610 h1         1 D2W       0.041700
     40 H6          -7.0700     0.5880    -1.5580 h1         1 D2W       0.041700
     41 H8          -6.1130     3.6080     0.2960 h1         1 D2W       0.031200
     42 H9          -6.5280     2.8740     1.8520 h1         1 D2W       0.031200
     43 H10         -5.0640     2.3810     1.0260 h1         1 D2W       0.031200
     44 H11         -8.8260     1.0530    -0.1820 h1         1 D2W       0.031200
     45 H12         -8.6160     2.0240     1.2730 h1         1 D2W       0.031200
     46 H13         -8.5450     2.7950    -0.3190 h1         1 D2W       0.031200
     47 H14         -2.5420     0.2730    -1.6550 ha         1 D2W       0.124500
     48 H15         -0.4930    -0.9490    -1.3650 ha         1 D2W       0.124500
     49 H16          1.0170    -1.5020    -0.0290 hn         1 D2W       0.334500
     50 H17          2.5170    -3.0640     1.4640 h1         1 D2W       0.058700
     51 H18          2.4950    -4.0420    -0.0000 h1         1 D2W       0.058700
     52 H19          3.4890    -2.3130    -1.3340 h1         1 D2W       0.071700
     53 H20          4.7630    -2.2340     1.4470 h1         1 D2W       0.071200
     54 H21          5.1810    -3.3630     0.1460 h1         1 D2W       0.071200
     55 H22          7.3020     0.5500    -0.6710 ha         1 D2W       0.130000
     56 H23          6.5670     2.8930    -1.0090 ha         1 D2W       0.121000
     57 H24          4.1700     3.4660    -0.8900 ha         1 D2W       0.121000
     58 H25          0.1820    -0.6040     2.0640 h1         1 D2W       0.047367
     59 H26          0.6930     0.7990     3.0180 h1         1 D2W       0.047367
     60 H27         -0.9410     0.1320     3.2210 h1         1 D2W       0.047367
     61 H28         -1.6250     2.6660    -0.3700 ha         1 D2W       0.133000
     62 H29         -0.2120     3.5370    -2.2270 ha         1 D2W       0.119000
     63 H30          2.2090     2.9630    -2.2820 ha         1 D2W       0.129000
@<TRIPOS>BOND
     1     1     2 2   
     2     2     3 1   
     3     2    15 1   
     4     3     4 ar  
     5     3    14 ar  
     6     4     5 ar  
     7     4    35 1   
     8     5     6 ar  
     9     5    36 1   
    10     6     7 1   
    11     6    13 ar  
    12     7     8 1   
    13     8     9 1   
    14     8    37 1   
    15     8    38 1   
    16     9    10 1   
    17     9    39 1   
    18     9    40 1   
    19    10    11 1   
    20    10    12 1   
    21    11    41 1   
    22    11    42 1   
    23    11    43 1   
    24    12    44 1   
    25    12    45 1   
    26    12    46 1   
    27    13    14 ar  
    28    13    47 1   
    29    14    48 1   
    30    15    16 1   
    31    15    49 1   
    32    16    17 1   
    33    16    50 1   
    34    16    51 1   
    35    17    18 1   
    36    17    23 1   
    37    17    52 1   
    38    18    19 1   
    39    18    53 1   
    40    18    54 1   
    41    19    20 1   
    42    20    21 ar  
    43    20    24 ar  
    44    21    22 ar  
    45    21    55 1   
    46    22    26 ar  
    47    22    56 1   
    48    23    24 1   
    49    24    25 ar  
    50    25    26 ar  
    51    25    27 1   
    52    26    57 1   
    53    27    28 ar  
    54    27    34 ar  
    55    28    29 ar  
    56    29    30 1   
    57    29    32 ar  
    58    30    31 1   
    59    31    58 1   
    60    31    59 1   
    61    31    60 1   
    62    32    33 ar  
    63    32    61 1   
    64    33    34 ar  
    65    33    62 1   
    66    34    63 1   
@<TRIPOS>SUBSTRUCTURE
     1 D2W         1 TEMP              0 ****  ****    0 ROOT
