@<TRIPOS>MOLECULE
D2W
   63    66     1     0     0
SMALL
No Charge or Current Charge


@<TRIPOS>ATOM
      1 O14         -0.0690    -4.3010     1.0090 o          1 D2W      -0.608100
      2 C13         -0.0630    -3.2150     0.4460 c          1 D2W       0.617700
      3 C15         -1.3300    -2.4400     0.1570 ca         1 D2W      -0.199600
      4 C28         -2.5640    -2.9190     0.6500 ca         1 D2W      -0.031500
      5 C27         -3.7520    -2.2070     0.4150 ca         1 D2W      -0.186500
      6 C26         -3.7360    -1.0100    -0.3140 ca         1 D2W       0.171100
      7 O29         -4.9330    -0.3520    -0.5050 os         1 D2W      -0.323100
      8 C30         -5.0150     0.8980    -1.2170 c3         1 D2W       0.164600
      9 C31         -6.4920     1.3800    -1.2280 c3         1 D2W       0.166800
     10 N32         -7.1240     1.6280     0.1030 n3         1 D2W      -0.700600
     11 C34         -6.4270     2.6550     0.9130 c3         1 D2W       0.149100
     12 C33         -8.5740     1.8990    -0.0080 c3         1 D2W       0.149100
     13 C25         -2.5130    -0.5270    -0.8210 ca         1 D2W      -0.186500
     14 C24         -1.3210    -1.2350    -0.5890 ca         1 D2W      -0.031500
     15 N12          1.1100    -2.6250     0.0470 ns         1 D2W      -0.499900
     16 C11          2.4550    -3.1320     0.3330 c3         1 D2W       0.112000
     17 C9           3.5510    -2.2380    -0.3140 c6         1 D2W       0.112300
     18 C8           4.9590    -2.4470     0.2920 c6         1 D2W       0.124600
     19 O7           5.8870    -1.5060    -0.2930 os         1 D2W      -0.329100
     20 C6           5.4540    -0.2050    -0.4760 ca         1 D2W       0.052100
     21 C3           6.3900     0.7910    -0.7890 ca         1 D2W      -0.096000
     22 C2           5.9610     2.1140    -0.9880 ca         1 D2W      -0.114000
     23 O10          3.1490    -0.8630    -0.1340 os         1 D2W      -0.332100
     24 C5           4.0790     0.1260    -0.3730 ca         1 D2W       0.096100
     25 C4           3.6210     1.4600    -0.5590 cp         1 D2W      -0.144500
     26 C1           4.5970     2.4430    -0.8750 ca         1 D2W      -0.096000
     27 C16          2.1720     1.8470    -0.4690 cp         1 D2W       0.457500
     28 N21          1.4510     1.3730     0.5720 nb         1 D2W      -0.747000
     29 C20          0.1530     1.7150     0.6850 ca         1 D2W       0.588300
     30 O22         -0.5960     1.2280     1.7300 os         1 D2W      -0.457300
     31 C23         -0.0490     0.2670     2.6530 c3         1 D2W       0.159900
     32 C19         -0.4850     2.5630    -0.2320 ca         1 D2W      -0.192000
     33 C18          0.2420     3.0790    -1.3140 ca         1 D2W      -0.049000
     34 C17          1.5910     2.7130    -1.4250 ca         1 D2W      -0.198000
     35 H1          -2.6060    -3.8420     1.2250 ha         1 D2W       0.124500
     36 H2          -4.6940    -2.5840     0.8060 ha         1 D2W       0.124500
     37 H3          -4.3800     1.6590    -0.7470 h1         1 D2W       0.034700
     38 H4          -4.6800     0.7690    -2.2540 h1         1 D2W       0.034700
     39 H5          -6.5380     2.2990    -1.8290 h1         1 D2W       0.041700
     40 H6          -7.0750     0.6240    -1.7710 h1         1 D2W       0.041700
     41 H8          -6.4210     3.6240     0.3960 h1         1 D2W       0.031200
     42 H9          -6.9260     2.7870     1.8820 h1         1 D2W       0.031200
     43 H10         -5.3890     2.3630     1.1160 h1         1 D2W       0.031200
     44 H11         -9.0830     1.0810    -0.5370 h1         1 D2W       0.031200
     45 H12         -9.0300     1.9910     0.9870 h1         1 D2W       0.031200
     46 H13         -8.7570     2.8310    -0.5590 h1         1 D2W       0.031200
     47 H14         -2.4650     0.3930    -1.3960 ha         1 D2W       0.124500
     48 H15         -0.4000    -0.8290    -1.0000 ha         1 D2W       0.124500
     49 H16          1.0420    -1.7020    -0.3600 hn         1 D2W       0.334500
     50 H17          2.5970    -3.1470     1.4220 h1         1 D2W       0.058700
     51 H18          2.5510    -4.1580    -0.0440 h1         1 D2W       0.058700
     52 H19          3.5880    -2.4480    -1.3920 h1         1 D2W       0.071700
     53 H20          4.9220    -2.2800     1.3780 h1         1 D2W       0.071200
     54 H21          5.3150    -3.4710     0.1110 h1         1 D2W       0.071200
     55 H22          7.4440     0.5390    -0.8770 ha         1 D2W       0.130000
     56 H23          6.6860     2.8880    -1.2290 ha         1 D2W       0.121000
     57 H24          4.2940     3.4760    -1.0280 ha         1 D2W       0.121000
     58 H25          0.2660    -0.6450     2.1290 h1         1 D2W       0.047367
     59 H26          0.8180     0.6810     3.1830 h1         1 D2W       0.047367
     60 H27         -0.8020    -0.0150     3.4000 h1         1 D2W       0.047367
     61 H28         -1.5330     2.8110    -0.0980 ha         1 D2W       0.133000
     62 H29         -0.2250     3.7390    -2.0420 ha         1 D2W       0.119000
     63 H30          2.1880     3.0860    -2.2520 ha         1 D2W       0.129000
@<TRIPOS>BOND
     1     1     2 2   
     2     2     3 1   
     3     2    15 1   
     4     3     4 ar  
     5     3    14 ar  
     6     4     5 ar  
     7     4    35 1   
     8     5     6 ar  
     9     5    36 1   
    10     6     7 1   
    11     6    13 ar  
    12     7     8 1   
    13     8     9 1   
    14     8    37 1   
    15     8    38 1   
    16     9    10 1   
    17     9    39 1   
    18     9    40 1   
    19    10    11 1   
    20    10    12 1   
    21    11    41 1   
    22    11    42 1   
    23    11    43 1   
    24    12    44 1   
    25    12    45 1   
    26    12    46 1   
    27    13    14 ar  
    28    13    47 1   
    29    14    48 1   
    30    15    16 1   
    31    15    49 1   
    32    16    17 1   
    33    16    50 1   
    34    16    51 1   
    35    17    18 1   
    36    17    23 1   
    37    17    52 1   
    38    18    19 1   
    39    18    53 1   
    40    18    54 1   
    41    19    20 1   
    42    20    21 ar  
    43    20    24 ar  
    44    21    22 ar  
    45    21    55 1   
    46    22    26 ar  
    47    22    56 1   
    48    23    24 1   
    49    24    25 ar  
    50    25    26 ar  
    51    25    27 1   
    52    26    57 1   
    53    27    28 ar  
    54    27    34 ar  
    55    28    29 ar  
    56    29    30 1   
    57    29    32 ar  
    58    30    31 1   
    59    31    58 1   
    60    31    59 1   
    61    31    60 1   
    62    32    33 ar  
    63    32    61 1   
    64    33    34 ar  
    65    33    62 1   
    66    34    63 1   
@<TRIPOS>SUBSTRUCTURE
     1 D2W         1 TEMP              0 ****  ****    0 ROOT
