@<TRIPOS>MOLECULE
D2Y
   66    68     1     0     0
SMALL
abcg2


@<TRIPOS>ATOM
      1 C4          -9.4330   -13.2900    15.1670 c6         1 D2Y       0.156300
      2 C5          -8.1660   -13.4160    14.3270 c6         1 D2Y       0.085300
      3 C6          -7.4410   -12.0850    14.3620 c6         1 D2Y       0.178600
      4 C7          -9.1850   -16.8220    17.7180 c          1 D2Y       0.612100
      5 C8          -8.7660   -16.6390    19.1560 c3         1 D2Y      -0.176100
      6 N2          -8.9720   -15.7580    16.9180 ns         1 D2Y      -0.469900
      7 C3         -10.2010   -14.5960    15.1020 c6         1 D2Y       0.172300
      8 O7          -9.6870   -17.8670    17.3290 o          1 D2Y      -0.649100
      9 C2          -9.2630   -15.7550    15.5080 c6         1 D2Y       0.047700
     10 O3         -11.3270   -14.5160    15.9270 oh         1 D2Y      -0.667000
     11 O4         -10.2010   -12.2290    14.6640 os         1 D2Y      -0.449000
     12 CAO         -9.5160   -10.9930    14.6910 c6         1 D2Y       0.225000
     13 CAQ        -10.4090    -9.9870    13.9870 c3         1 D2Y      -0.057100
     14 CAP         -9.2540   -10.4930    16.1580 c          1 D2Y       0.693000
     15 OAS        -10.1140   -10.8110    16.9970 o          1 D2Y      -0.701000
     16 OAR         -8.2570    -9.7690    16.3190 o          1 D2Y      -0.701000
     17 O6          -8.3350   -11.0850    13.9310 os         1 D2Y      -0.460000
     18 O5          -7.3480   -14.4470    14.8320 os         1 D2Y      -0.500000
     19 C1          -7.9760   -15.7090    14.6810 c6         1 D2Y       0.379300
     20 O1          -7.1070   -16.6720    15.1300 os         1 D2Y      -0.448000
     21 CAZ         -6.2130   -17.2520    14.1950 c6         1 D2Y       0.110300
     22 CAY         -4.8490   -16.5580    14.2260 c6         1 D2Y       0.149300
     23 OBA         -4.8800   -15.2600    13.7020 oh         1 D2Y      -0.720000
     24 CAU         -6.0690   -18.7260    14.5840 c6         1 D2Y       0.184300
     25 CBB         -7.3750   -19.4930    14.5480 c3         1 D2Y       0.166600
     26 OBC         -7.9910   -19.3310    13.2930 oh         1 D2Y      -0.715000
     27 OAV         -5.1470   -19.3390    13.7100 os         1 D2Y      -0.473000
     28 CAW         -3.8480   -18.8170    13.8240 c6         1 D2Y       0.379300
     29 OBD         -3.0140   -19.5270    12.9970 os         1 D2Y      -0.423000
     30 CBI         -2.6630   -20.8120    13.4700 c3         1 D2Y       0.150900
     31 CAX         -3.8420   -17.3510    13.3930 c6         1 D2Y       0.082700
     32 NBE         -2.5270   -16.7820    13.5060 ns         1 D2Y      -0.487900
     33 CBF         -1.7920   -16.3600    12.4590 c          1 D2Y       0.616100
     34 OBH         -2.1710   -16.4310    11.2990 o          1 D2Y      -0.598100
     35 CBG         -0.4460   -15.7770    12.8140 c3         1 D2Y      -0.178100
     36 H1          -9.1430   -13.0910    16.2110 h1         1 D2Y       0.083700
     37 H2          -8.4500   -13.6350    13.2850 h1         1 D2Y       0.042700
     38 H3          -6.5910   -12.0800    13.6760 h1         1 D2Y       0.057700
     39 H4          -7.0610   -11.8900    15.3720 h1         1 D2Y       0.057700
     40 H5          -9.6290   -16.7900    19.8050 hc         1 D2Y       0.057033
     41 H6          -8.0290   -17.3990    19.4140 hc         1 D2Y       0.057033
     42 H7          -8.3410   -15.6610    19.3700 hc         1 D2Y       0.057033
     43 H8          -8.5120   -14.9550    17.3150 hn         1 D2Y       0.337500
     44 H9         -10.4850   -14.7690    14.0520 h1         1 D2Y       0.032700
     45 H10         -9.7650   -16.6960    15.2760 h1         1 D2Y       0.077700
     46 H11        -11.8790   -15.2900    15.7760 ho         1 D2Y       0.489000
     47 H12        -11.3560    -9.8850    14.5150 hc         1 D2Y       0.037700
     48 H13         -9.9300    -9.0090    13.9610 hc         1 D2Y       0.037700
     49 H14        -10.6150   -10.2980    12.9620 hc         1 D2Y       0.037700
     50 H16         -8.2290   -15.8570    13.6180 h2         1 D2Y       0.038700
     51 H17         -6.6210   -17.1800    13.1780 h1         1 D2Y       0.084700
     52 H18         -4.5050   -16.5580    15.2750 h1         1 D2Y       0.028700
     53 H19         -5.5450   -14.7430    14.1800 ho         1 D2Y       0.544000
     54 H20         -5.6990   -18.7790    15.6220 h1         1 D2Y       0.043700
     55 H21         -8.0060   -19.1290    15.3650 h1         1 D2Y       0.042200
     56 H22         -7.1550   -20.5470    14.7640 h1         1 D2Y       0.042200
     57 H23         -8.8660   -19.7270    13.3350 ho         1 D2Y       0.503000
     58 H24         -3.5180   -18.8920    14.8790 h2         1 D2Y       0.008700
     59 H25         -1.8990   -21.2060    12.8030 h1         1 D2Y       0.031367
     60 H26         -2.2520   -20.7670    14.4830 h1         1 D2Y       0.031367
     61 H27         -3.5110   -21.5020    13.4710 h1         1 D2Y       0.031367
     62 H28         -4.1410   -17.3050    12.3420 h1         1 D2Y       0.122700
     63 H29         -2.1480   -16.6710    14.4340 hn         1 D2Y       0.304500
     64 H30         -0.3980   -14.7450    12.4640 hc         1 D2Y       0.055367
     65 H31         -0.2270   -15.7890    13.8800 hc         1 D2Y       0.055367
     66 H32          0.3360   -16.3300    12.2950 hc         1 D2Y       0.055367
@<TRIPOS>BOND
     1     1     2 1   
     2     1     7 1   
     3     1    11 1   
     4     1    36 1   
     5     2     3 1   
     6     2    18 1   
     7     2    37 1   
     8     3    17 1   
     9     3    38 1   
    10     3    39 1   
    11     4     5 1   
    12     4     6 1   
    13     4     8 2   
    14     5    40 1   
    15     5    41 1   
    16     5    42 1   
    17     6     9 1   
    18     6    43 1   
    19     7     9 1   
    20     7    10 1   
    21     7    44 1   
    22     9    19 1   
    23     9    45 1   
    24    10    46 1   
    25    11    12 1   
    26    12    13 1   
    27    12    14 1   
    28    12    17 1   
    29    13    47 1   
    30    13    48 1   
    31    13    49 1   
    32    14    15 1   
    33    14    16 1   
    34    18    19 1   
    35    19    20 1   
    36    19    50 1   
    37    20    21 1   
    38    21    22 1   
    39    21    24 1   
    40    21    51 1   
    41    22    23 1   
    42    22    31 1   
    43    22    52 1   
    44    23    53 1   
    45    24    25 1   
    46    24    27 1   
    47    24    54 1   
    48    25    26 1   
    49    25    55 1   
    50    25    56 1   
    51    26    57 1   
    52    27    28 1   
    53    28    29 1   
    54    28    31 1   
    55    28    58 1   
    56    29    30 1   
    57    30    59 1   
    58    30    60 1   
    59    30    61 1   
    60    31    32 1   
    61    31    62 1   
    62    32    33 1   
    63    32    63 1   
    64    33    34 2   
    65    33    35 1   
    66    35    64 1   
    67    35    65 1   
    68    35    66 1   
@<TRIPOS>SUBSTRUCTURE
     1 D2Y         1 TEMP              0 ****  ****    0 ROOT
