@<TRIPOS>MOLECULE
D2Y
   66    68     1     0     0
SMALL
No Charge or Current Charge


@<TRIPOS>ATOM
      1 C4          -9.4890   -13.2400    15.1400 c6         1 D2Y       0.156300
      2 C5          -8.2250   -13.4550    14.2740 c6         1 D2Y       0.085300
      3 C6          -7.4220   -12.1340    14.2550 c6         1 D2Y       0.178600
      4 C7          -9.0580   -16.8240    17.8920 c          1 D2Y       0.612100
      5 C8          -8.6490   -16.5020    19.3230 c3         1 D2Y      -0.176100
      6 N2          -9.1620   -15.7300    17.0650 ns         1 D2Y      -0.469900
      7 C3         -10.3340   -14.5530    15.1530 c6         1 D2Y       0.172300
      8 O7          -9.2900   -17.9650    17.5160 o          1 D2Y      -0.649100
      9 C2          -9.4570   -15.7690    15.6070 c6         1 D2Y       0.047700
     10 O3         -11.5030   -14.4150    15.9890 oh         1 D2Y      -0.667000
     11 O4         -10.2260   -12.0920    14.6420 os         1 D2Y      -0.449000
     12 CAO         -9.4650   -10.8460    14.6560 c6         1 D2Y       0.225000
     13 CAQ        -10.3380    -9.8070    13.9050 c3         1 D2Y      -0.057100
     14 CAP         -9.1600   -10.2470    16.1200 c          1 D2Y       0.693000
     15 OAS         -9.8080   -10.6890    17.0640 o          1 D2Y      -0.701000
     16 OAR         -8.0540    -9.7520    16.3140 o          1 D2Y      -0.701000
     17 O6          -8.2840   -11.0520    13.8210 os         1 D2Y      -0.460000
     18 O5          -7.4600   -14.5600    14.8030 os         1 D2Y      -0.500000
     19 C1          -8.1590   -15.8200    14.7300 c6         1 D2Y       0.379300
     20 O1          -7.2720   -16.8500    15.2000 os         1 D2Y      -0.448000
     21 CAZ         -6.2950   -17.3710    14.2590 c6         1 D2Y       0.110300
     22 CAY         -4.9280   -16.6130    14.3420 c6         1 D2Y       0.149300
     23 OBA         -5.0710   -15.2140    14.0500 oh         1 D2Y      -0.720000
     24 CAU         -6.0640   -18.8870    14.5250 c6         1 D2Y       0.184300
     25 CBB         -7.3700   -19.7320    14.3390 c3         1 D2Y       0.166600
     26 OBC         -7.8820   -19.7290    12.9880 oh         1 D2Y      -0.715000
     27 OAV         -5.0540   -19.4010    13.6230 os         1 D2Y      -0.473000
     28 CAW         -3.7640   -18.7810    13.7760 c6         1 D2Y       0.379300
     29 OBD         -2.8270   -19.4650    12.9280 os         1 D2Y      -0.423000
     30 CBI         -2.5330   -20.8270    13.2760 c3         1 D2Y       0.150900
     31 CAX         -3.8650   -17.2670    13.4060 c6         1 D2Y       0.082700
     32 NBE         -2.5610   -16.5650    13.5150 ns         1 D2Y      -0.487900
     33 CBF         -1.6390   -16.4220    12.5040 c          1 D2Y       0.616100
     34 OBH         -1.8260   -16.8450    11.3730 o          1 D2Y      -0.598100
     35 CBG         -0.3700   -15.6780    12.9010 c3         1 D2Y      -0.178100
     36 H1          -9.1710   -13.0310    16.1700 h1         1 D2Y       0.083700
     37 H2          -8.5230   -13.6950    13.2420 h1         1 D2Y       0.042700
     38 H3          -6.5770   -12.2200    13.5580 h1         1 D2Y       0.057700
     39 H4          -7.0210   -11.9170    15.2550 h1         1 D2Y       0.057700
     40 H5          -9.3420   -15.7600    19.7360 hc         1 D2Y       0.057033
     41 H6          -8.5880   -17.3940    19.9570 hc         1 D2Y       0.057033
     42 H7          -7.7010   -15.9520    19.3080 hc         1 D2Y       0.057033
     43 H8          -8.9570   -14.8350    17.4890 hn         1 D2Y       0.337500
     44 H9         -10.6530   -14.7460    14.1180 h1         1 D2Y       0.032700
     45 H10        -10.0240   -16.6870    15.4000 h1         1 D2Y       0.077700
     46 H11        -12.0360   -15.2330    15.8780 ho         1 D2Y       0.489000
     47 H12        -11.2790    -9.6270    14.4370 hc         1 D2Y       0.037700
     48 H13         -9.8180    -8.8460    13.8170 hc         1 D2Y       0.037700
     49 H14        -10.5850   -10.1490    12.8930 hc         1 D2Y       0.037700
     50 H16         -8.4450   -16.0260    13.6870 h2         1 D2Y       0.038700
     51 H17         -6.6920   -17.2740    13.2370 h1         1 D2Y       0.084700
     52 H18         -4.5650   -16.7180    15.3760 h1         1 D2Y       0.028700
     53 H19         -5.9580   -14.9480    14.4300 ho         1 D2Y       0.544000
     54 H20         -5.7150   -19.0240    15.5590 h1         1 D2Y       0.043700
     55 H21         -8.1300   -19.3510    15.0350 h1         1 D2Y       0.042200
     56 H22         -7.1420   -20.7610    14.6500 h1         1 D2Y       0.042200
     57 H23         -8.6180   -20.3830    12.9570 ho         1 D2Y       0.503000
     58 H24         -3.4340   -18.8760    14.8210 h2         1 D2Y       0.008700
     59 H25         -1.7880   -21.2440    12.5860 h1         1 D2Y       0.031367
     60 H26         -2.1300   -20.8910    14.2940 h1         1 D2Y       0.031367
     61 H27         -3.4350   -21.4510    13.2190 h1         1 D2Y       0.031367
     62 H28         -4.2210   -17.1970    12.3680 h1         1 D2Y       0.122700
     63 H29         -2.3240   -16.1350    14.4000 hn         1 D2Y       0.304500
     64 H30         -0.6440   -14.7040    13.3220 hc         1 D2Y       0.055367
     65 H31          0.0860   -16.1830    13.7600 hc         1 D2Y       0.055367
     66 H32          0.3370   -15.5750    12.0700 hc         1 D2Y       0.055367
@<TRIPOS>BOND
     1     1     2 1   
     2     1     7 1   
     3     1    11 1   
     4     1    36 1   
     5     2     3 1   
     6     2    18 1   
     7     2    37 1   
     8     3    17 1   
     9     3    38 1   
    10     3    39 1   
    11     4     5 1   
    12     4     6 1   
    13     4     8 2   
    14     5    40 1   
    15     5    41 1   
    16     5    42 1   
    17     6     9 1   
    18     6    43 1   
    19     7     9 1   
    20     7    10 1   
    21     7    44 1   
    22     9    19 1   
    23     9    45 1   
    24    10    46 1   
    25    11    12 1   
    26    12    13 1   
    27    12    14 1   
    28    12    17 1   
    29    13    47 1   
    30    13    48 1   
    31    13    49 1   
    32    14    15 1   
    33    14    16 1   
    34    18    19 1   
    35    19    20 1   
    36    19    50 1   
    37    20    21 1   
    38    21    22 1   
    39    21    24 1   
    40    21    51 1   
    41    22    23 1   
    42    22    31 1   
    43    22    52 1   
    44    23    53 1   
    45    24    25 1   
    46    24    27 1   
    47    24    54 1   
    48    25    26 1   
    49    25    55 1   
    50    25    56 1   
    51    26    57 1   
    52    27    28 1   
    53    28    29 1   
    54    28    31 1   
    55    28    58 1   
    56    29    30 1   
    57    30    59 1   
    58    30    60 1   
    59    30    61 1   
    60    31    32 1   
    61    31    62 1   
    62    32    33 1   
    63    32    63 1   
    64    33    34 2   
    65    33    35 1   
    66    35    64 1   
    67    35    65 1   
    68    35    66 1   
@<TRIPOS>SUBSTRUCTURE
     1 D2Y         1 TEMP              0 ****  ****    0 ROOT
