@<TRIPOS>MOLECULE
D2Z
   51    53     1     0     0
SMALL
No Charge or Current Charge


@<TRIPOS>ATOM
      1 C1           6.8480     1.9900    -1.8440 ca         1 D2Z      -0.103000
      2 C2           5.7220     2.7520    -1.4810 ca         1 D2Z      -0.108000
      3 C3           4.6820     2.1650    -0.7360 ca         1 D2Z      -0.111000
      4 C4           6.9430     0.6410    -1.4550 ca         1 D2Z      -0.100000
      5 C5           5.9130     0.0540    -0.7030 ca         1 D2Z       0.058100
      6 C6           4.7680     0.8160    -0.3560 ca         1 D2Z       0.052100
      7 O7           3.7310     0.2460     0.3550 os         1 D2Z      -0.356100
      8 C8           3.6990    -1.1980     0.4450 c6         1 D2Z       0.111300
      9 C9           5.1250    -1.7330     0.7170 c6         1 D2Z       0.126600
     10 O10          6.0280    -1.2650    -0.3090 os         1 D2Z      -0.321100
     11 C11          2.6850    -1.5930     1.5560 c3         1 D2Z       0.110000
     12 N12          1.3180    -1.1160     1.2980 ns         1 D2Z      -0.494900
     13 C13          0.4750    -1.6400     0.3420 c          1 D2Z       0.611700
     14 C14         -0.8720    -0.9690     0.1700 ca         1 D2Z      -0.153600
     15 O15          0.8080    -2.6070    -0.3280 o          1 D2Z      -0.592100
     16 C16         -1.7740    -1.4720    -0.7950 ca         1 D2Z      -0.028500
     17 C17         -3.0310    -0.8730    -0.9820 ca         1 D2Z      -0.171000
     18 C18         -3.4150     0.2340    -0.2150 ca         1 D2Z       0.123100
     19 C19         -2.5260     0.7470     0.7510 ca         1 D2Z      -0.171000
     20 C20         -1.2660     0.1520     0.9420 ca         1 D2Z      -0.028500
     21 O21         -4.6610     0.7760    -0.4450 os         1 D2Z      -0.383100
     22 C22         -5.1560     1.9110     0.2950 c3         1 D2Z       0.141600
     23 C23         -6.5780     2.2030    -0.2220 c3         1 D2Z       0.093600
     24 N24         -7.4960     0.9720    -0.2150 nx         1 D2Z      -0.653000
     25 C25         -7.8260     0.4810     1.2020 c3         1 D2Z       0.071900
     26 C26         -8.7640     1.1960    -1.0500 c3         1 D2Z       0.071900
     27 H1           7.6490     2.4460    -2.4220 ha         1 D2Z       0.124000
     28 H2           5.6530     3.7960    -1.7800 ha         1 D2Z       0.120000
     29 H3           3.8080     2.7510    -0.4640 ha         1 D2Z       0.118000
     30 H4           7.8170     0.0550    -1.7280 ha         1 D2Z       0.134000
     31 H5           3.3510    -1.6020    -0.5170 h1         1 D2Z       0.070700
     32 H6           5.4760    -1.3690     1.6930 h1         1 D2Z       0.073200
     33 H7           5.1340    -2.8320     0.7340 h1         1 D2Z       0.073200
     34 H8           2.6660    -2.6880     1.6490 h1         1 D2Z       0.069200
     35 H9           3.0280    -1.1820     2.5150 h1         1 D2Z       0.069200
     36 H10          0.9910    -0.3070     1.8090 hn         1 D2Z       0.327500
     37 H11         -1.5030    -2.3310    -1.4060 ha         1 D2Z       0.140500
     38 H12         -3.7130    -1.2730    -1.7290 ha         1 D2Z       0.123000
     39 H13         -2.7920     1.6050     1.3610 ha         1 D2Z       0.123000
     40 H14         -0.6100     0.5780     1.6970 ha         1 D2Z       0.140500
     41 H15         -5.1960     1.6910     1.3690 h1         1 D2Z       0.075700
     42 H16         -4.5220     2.7940     0.1400 h1         1 D2Z       0.075700
     43 H17         -7.0320     2.9950     0.3800 hx         1 D2Z       0.107700
     44 H18         -6.4950     2.5650    -1.2500 hx         1 D2Z       0.107700
     45 H19         -6.9460     0.2090    -0.6830 hn         1 D2Z       0.519000
     46 H20         -8.3740     1.2580     1.7400 hx         1 D2Z       0.101367
     47 H21         -8.4430    -0.4200     1.1470 hx         1 D2Z       0.101367
     48 H22         -6.9040     0.2510     1.7420 hx         1 D2Z       0.101367
     49 H23         -9.3600     1.9940    -0.6010 hx         1 D2Z       0.101367
     50 H24         -8.4920     1.4800    -2.0690 hx         1 D2Z       0.101367
     51 H25         -9.3560     0.2780    -1.0770 hx         1 D2Z       0.101367
@<TRIPOS>BOND
     1     1     2 ar  
     2     1     4 ar  
     3     1    27 1   
     4     2     3 ar  
     5     2    28 1   
     6     3     6 ar  
     7     3    29 1   
     8     4     5 ar  
     9     4    30 1   
    10     5     6 ar  
    11     5    10 1   
    12     6     7 1   
    13     7     8 1   
    14     8     9 1   
    15     8    11 1   
    16     8    31 1   
    17     9    10 1   
    18     9    32 1   
    19     9    33 1   
    20    11    12 1   
    21    11    34 1   
    22    11    35 1   
    23    12    13 1   
    24    12    36 1   
    25    13    14 1   
    26    13    15 2   
    27    14    16 ar  
    28    14    20 ar  
    29    16    17 ar  
    30    16    37 1   
    31    17    18 ar  
    32    17    38 1   
    33    18    19 ar  
    34    18    21 1   
    35    19    20 ar  
    36    19    39 1   
    37    20    40 1   
    38    21    22 1   
    39    22    23 1   
    40    22    41 1   
    41    22    42 1   
    42    23    24 1   
    43    23    43 1   
    44    23    44 1   
    45    24    25 1   
    46    24    26 1   
    47    24    45 1   
    48    25    46 1   
    49    25    47 1   
    50    25    48 1   
    51    26    49 1   
    52    26    50 1   
    53    26    51 1   
@<TRIPOS>SUBSTRUCTURE
     1 D2Z         1 TEMP              0 ****  ****    0 ROOT
