@<TRIPOS>MOLECULE
D2Z
   51    53     1     0     0
SMALL
abcg2


@<TRIPOS>ATOM
      1 C1           6.7360     2.6960    -0.7120 ca         1 D2Z      -0.103000
      2 C2           5.4990     3.2280    -0.3700 ca         1 D2Z      -0.108000
      3 C3           4.4480     2.3830    -0.0460 ca         1 D2Z      -0.111000
      4 C4           6.9250     1.3220    -0.7080 ca         1 D2Z      -0.100000
      5 C5           5.8790     0.4710    -0.3740 ca         1 D2Z       0.058100
      6 C6           4.6300     1.0070    -0.0490 ca         1 D2Z       0.052100
      7 O7           3.5800     0.2110     0.2680 os         1 D2Z      -0.356100
      8 C8           3.7290    -1.1590    -0.0870 c6         1 D2Z       0.111300
      9 C9           5.1170    -1.6280     0.3010 c6         1 D2Z       0.126600
     10 O10          6.1000    -0.8660    -0.3760 os         1 D2Z      -0.321100
     11 C11          2.6530    -1.9380     0.6370 c3         1 D2Z       0.110000
     12 N12          1.3430    -1.4500     0.2740 ns         1 D2Z      -0.494900
     13 C13          0.2250    -2.1620     0.4980 c          1 D2Z       0.611700
     14 C14         -1.0710    -1.4860     0.1980 ca         1 D2Z      -0.153600
     15 O15          0.2570    -3.3120     0.9170 o          1 D2Z      -0.592100
     16 C16         -2.2070    -2.2800     0.0280 ca         1 D2Z      -0.028500
     17 C17         -3.4390    -1.7160    -0.2320 ca         1 D2Z      -0.171000
     18 C18         -3.5680    -0.3290    -0.3170 ca         1 D2Z       0.123100
     19 C19         -2.4500     0.4790    -0.1380 ca         1 D2Z      -0.171000
     20 C20         -1.2170    -0.1050     0.1170 ca         1 D2Z      -0.028500
     21 O21         -4.8050     0.1410    -0.5720 os         1 D2Z      -0.383100
     22 C22         -5.0050     1.5380    -0.6430 c3         1 D2Z       0.141600
     23 C23         -6.4660     1.7740    -0.9300 c3         1 D2Z       0.093600
     24 N24         -7.3790     1.1450     0.0710 nx         1 D2Z      -0.653000
     25 C25         -7.1010     1.5630     1.4680 c3         1 D2Z       0.071900
     26 C26         -8.7950     1.4140    -0.2910 c3         1 D2Z       0.071900
     27 H1           7.5590     3.3480    -0.9730 ha         1 D2Z       0.124000
     28 H2           5.3460     4.2990    -0.3650 ha         1 D2Z       0.120000
     29 H3           3.4750     2.7830     0.2140 ha         1 D2Z       0.118000
     30 H4           7.8870     0.8960    -0.9650 ha         1 D2Z       0.134000
     31 H5           3.5980    -1.2680    -1.1720 h1         1 D2Z       0.070700
     32 H6           5.2520    -1.5490     1.3850 h1         1 D2Z       0.073200
     33 H7           5.2660    -2.6670     0.0100 h1         1 D2Z       0.073200
     34 H8           2.7420    -2.9890     0.3600 h1         1 D2Z       0.069200
     35 H9           2.8090    -1.8720     1.7190 h1         1 D2Z       0.069200
     36 H10          1.2740    -0.5050    -0.0640 hn         1 D2Z       0.327500
     37 H11         -2.1250    -3.3560     0.0960 ha         1 D2Z       0.140500
     38 H12         -4.3100    -2.3450    -0.3700 ha         1 D2Z       0.123000
     39 H13         -2.5100     1.5570    -0.1860 ha         1 D2Z       0.123000
     40 H14         -0.3800     0.5620     0.2760 ha         1 D2Z       0.140500
     41 H15         -4.6920     2.0320     0.2810 h1         1 D2Z       0.075700
     42 H16         -4.4350     1.9850    -1.4640 h1         1 D2Z       0.075700
     43 H17         -6.6660     2.8450    -0.9310 hx         1 D2Z       0.107700
     44 H18         -6.7420     1.3670    -1.9020 hx         1 D2Z       0.107700
     45 H19         -7.2420     0.1340     0.0200 hn         1 D2Z       0.519000
     46 H20         -7.1430     2.6470     1.5270 hx         1 D2Z       0.101367
     47 H21         -7.8560     1.1270     2.1140 hx         1 D2Z       0.101367
     48 H22         -6.1230     1.2070     1.7740 hx         1 D2Z       0.101367
     49 H23         -8.9780     2.4820    -0.2110 hx         1 D2Z       0.101367
     50 H24         -8.9690     1.0810    -1.3100 hx         1 D2Z       0.101367
     51 H25         -9.4400     0.8700     0.3910 hx         1 D2Z       0.101367
@<TRIPOS>BOND
     1     1     2 ar  
     2     1     4 ar  
     3     1    27 1   
     4     2     3 ar  
     5     2    28 1   
     6     3     6 ar  
     7     3    29 1   
     8     4     5 ar  
     9     4    30 1   
    10     5     6 ar  
    11     5    10 1   
    12     6     7 1   
    13     7     8 1   
    14     8     9 1   
    15     8    11 1   
    16     8    31 1   
    17     9    10 1   
    18     9    32 1   
    19     9    33 1   
    20    11    12 1   
    21    11    34 1   
    22    11    35 1   
    23    12    13 1   
    24    12    36 1   
    25    13    14 1   
    26    13    15 2   
    27    14    16 ar  
    28    14    20 ar  
    29    16    17 ar  
    30    16    37 1   
    31    17    18 ar  
    32    17    38 1   
    33    18    19 ar  
    34    18    21 1   
    35    19    20 ar  
    36    19    39 1   
    37    20    40 1   
    38    21    22 1   
    39    22    23 1   
    40    22    41 1   
    41    22    42 1   
    42    23    24 1   
    43    23    43 1   
    44    23    44 1   
    45    24    25 1   
    46    24    26 1   
    47    24    45 1   
    48    25    46 1   
    49    25    47 1   
    50    25    48 1   
    51    26    49 1   
    52    26    50 1   
    53    26    51 1   
@<TRIPOS>SUBSTRUCTURE
     1 D2Z         1 TEMP              0 ****  ****    0 ROOT
