@<TRIPOS>MOLECULE
D30
   68    71     1     0     0
SMALL
No Charge or Current Charge


@<TRIPOS>ATOM
      1 C2          -5.1860    -0.1240    -0.3110 ca         1 D30      -0.127300
      2 C3          -3.2630     0.0790    -1.8150 ca         1 D30      -0.175000
      3 C6          -6.3720     0.4900     0.4570 c6         1 D30      -0.021100
      4 C7          -0.7880     1.7930     1.3200 c3         1 D30       0.256700
      5 C9          -5.9960     2.6470    -0.8010 c6         1 D30      -0.071400
      6 C10         -3.8650    -2.0950    -0.8990 ca         1 D30      -0.226000
      7 C20          1.5100    -0.7190    -2.5230 ca         1 D30      -0.140000
      8 C21         -3.7670     4.2240     2.8660 c3         1 D30       0.005700
      9 C26          5.5120    -0.0760    -0.3750 ca         1 D30       0.182100
     10 C27          6.3830     1.0120    -0.5250 ca         1 D30      -0.186000
     11 C28          5.9940    -1.2790     0.1820 ca         1 D30      -0.186000
     12 C29          7.7280     0.9110    -0.1310 ca         1 D30      -0.022000
     13 C30          7.3390    -1.3840     0.5780 ca         1 D30      -0.022000
     14 C31          8.2200    -0.2930     0.4180 ca         1 D30      -0.248300
     15 C32          9.6830    -0.4050     0.8600 c3         1 D30       0.362300
     16 O21         -7.5560    -3.6260     2.1990 o          1 D30      -0.712000
     17 C17         -6.6910    -4.3360     1.6980 c          1 D30       0.729000
     18 O22         -6.6230    -5.5420     1.8990 o          1 D30      -0.712000
     19 C14         -5.6210    -3.7010     0.7610 c3         1 D30       0.000600
     20 C5          -4.9440    -1.5130    -0.2030 ca         1 D30       0.188100
     21 C8          -3.0310    -1.3010    -1.6950 ca         1 D30      -0.048000
     22 C12         -6.3210     2.0270     0.5660 c6         1 D30      -0.076400
     23 C4          -4.6010     2.1920    -1.2790 c6         1 D30      -0.032100
     24 C1          -4.3520     0.6780    -1.1380 ca         1 D30       0.004700
     25 S7          -2.1470     1.0550    -2.8300 ss         1 D30       0.014000
     26 C13         -0.5750     0.4930    -2.1790 ca         1 D30      -0.134000
     27 C16          0.2810    -0.2490    -3.0120 ca         1 D30      -0.047000
     28 C15         -0.1960     0.7760    -0.8500 ca         1 D30       0.175100
     29 O1          -1.0500     1.5280    -0.0660 os         1 D30      -0.306100
     30 C11         -1.8740     2.6240     1.8530 c1         1 D30      -0.153100
     31 C19         -2.7430     3.3330     2.3060 c1         1 D30      -0.092100
     32 C22         -4.2100     5.3110     1.8680 c3         1 D30      -0.087100
     33 C18          1.0420     0.2970    -0.3640 ca         1 D30      -0.186000
     34 C23          1.8960    -0.4530    -1.1970 ca         1 D30      -0.054300
     35 C24          3.2300    -0.9660    -0.6660 c3         1 D30       0.206900
     36 O25          4.2040     0.0860    -0.7800 os         1 D30      -0.333100
     37 F35         10.5040     0.3880     0.1340 f          1 D30      -0.118333
     38 F33          9.8330    -0.0480     2.1550 f          1 D30      -0.118333
     39 F34         10.1610    -1.6650     0.7390 f          1 D30      -0.118333
     40 H6          -7.3050     0.1950    -0.0430 hc         1 D30       0.067200
     41 H6A         -6.4270     0.0700     1.4710 hc         1 D30       0.067200
     42 H7          -0.7370     0.8580     1.8920 h1         1 D30       0.049200
     43 H7A          0.1600     2.3330     1.4410 h1         1 D30       0.049200
     44 H9          -6.7570     2.3460    -1.5350 hc         1 D30       0.030200
     45 H9A         -6.0340     3.7430    -0.7430 hc         1 D30       0.030200
     46 H10         -3.6580    -3.1580    -0.8330 ha         1 D30       0.125000
     47 H20          2.1620    -1.2930    -3.1770 ha         1 D30       0.111000
     48 H21         -4.6360     3.6270     3.1700 hc         1 D30       0.058200
     49 H21A        -3.3710     4.6990     3.7720 hc         1 D30       0.058200
     50 H27          6.0130     1.9410    -0.9490 ha         1 D30       0.131000
     51 H28          5.3460    -2.1390     0.3170 ha         1 D30       0.131000
     52 H29          8.3820     1.7730    -0.2520 ha         1 D30       0.126000
     53 H30          7.6910    -2.3180     1.0120 ha         1 D30       0.126000
     54 H14         -4.6350    -3.9160     1.1930 h1         1 D30       0.018200
     55 H14A        -5.6880    -4.2100    -0.2090 h1         1 D30       0.018200
     56 H8          -2.1990    -1.7630    -2.2230 ha         1 D30       0.103000
     57 H12         -7.2790     2.4100     0.9410 hc         1 D30       0.033200
     58 H12A        -5.5550     2.3200     1.2970 hc         1 D30       0.033200
     59 H4          -4.4830     2.5040    -2.3250 hc         1 D30       0.052200
     60 H4A         -3.8320     2.7300    -0.7090 hc         1 D30       0.052200
     61 H16         -0.0110    -0.4660    -4.0370 ha         1 D30       0.128000
     62 H22         -3.3640     5.9490     1.5850 hc         1 D30       0.038367
     63 H22A        -4.6250     4.8620     0.9580 hc         1 D30       0.038367
     64 H22B        -4.9820     5.9480     2.3170 hc         1 D30       0.038367
     65 H18          1.3610     0.5010     0.6540 ha         1 D30       0.119000
     66 H24          3.1110    -1.2710     0.3820 h1         1 D30       0.045200
     67 H24A         3.5420    -1.8450    -1.2450 h1         1 D30       0.045200
     68 O11         -5.7880    -2.2730     0.5880 os         1 D30      -0.294100
@<TRIPOS>BOND
     1     1     3 1   
     2     1    20 ar  
     3     1    24 ar  
     4     2    21 ar  
     5     2    24 ar  
     6     2    25 1   
     7     3    22 1   
     8     3    40 1   
     9     3    41 1   
    10     4    29 1   
    11     4    30 1   
    12     4    42 1   
    13     4    43 1   
    14     5    22 1   
    15     5    23 1   
    16     5    44 1   
    17     5    45 1   
    18     6    20 ar  
    19     6    21 ar  
    20     6    46 1   
    21     7    27 ar  
    22     7    34 ar  
    23     7    47 1   
    24     8    31 1   
    25     8    32 1   
    26     8    48 1   
    27     8    49 1   
    28     9    10 ar  
    29     9    11 ar  
    30     9    36 1   
    31    10    12 ar  
    32    10    50 1   
    33    11    13 ar  
    34    11    51 1   
    35    12    14 ar  
    36    12    52 1   
    37    13    14 ar  
    38    13    53 1   
    39    14    15 1   
    40    15    37 1   
    41    15    38 1   
    42    15    39 1   
    43    16    17 1   
    44    17    18 1   
    45    17    19 1   
    46    19    54 1   
    47    19    55 1   
    48    19    68 1   
    49    20    68 1   
    50    21    56 1   
    51    22    57 1   
    52    22    58 1   
    53    23    24 1   
    54    23    59 1   
    55    23    60 1   
    56    25    26 1   
    57    26    27 ar  
    58    26    28 ar  
    59    27    61 1   
    60    28    29 1   
    61    28    33 ar  
    62    30    31 3   
    63    32    62 1   
    64    32    63 1   
    65    32    64 1   
    66    33    34 ar  
    67    33    65 1   
    68    34    35 1   
    69    35    36 1   
    70    35    66 1   
    71    35    67 1   
@<TRIPOS>SUBSTRUCTURE
     1 D30         1 TEMP              0 ****  ****    0 ROOT
