@<TRIPOS>MOLECULE
D30
   68    71     1     0     0
SMALL
abcg2


@<TRIPOS>ATOM
      1 C2          -5.1550    -0.1170    -0.2730 ca         1 D30      -0.127300
      2 C3          -3.2920    -0.0520    -1.8040 ca         1 D30      -0.175000
      3 C6          -6.2560     0.5380     0.5260 c6         1 D30      -0.021100
      4 C7          -0.6340     1.6270     1.0740 c3         1 D30       0.256700
      5 C9          -5.7820     2.6450    -0.7180 c6         1 D30      -0.071400
      6 C10         -3.9800    -2.1590    -0.8670 ca         1 D30      -0.226000
      7 C20          1.4740    -0.8270    -2.7500 ca         1 D30      -0.140000
      8 C21         -3.4570     4.0400     2.8420 c3         1 D30       0.005700
      9 C26          5.2960     0.0130    -0.3320 ca         1 D30       0.182100
     10 C27          6.0130     1.1930    -0.1100 ca         1 D30      -0.186000
     11 C28          5.9010    -1.2140    -0.0720 ca         1 D30      -0.186000
     12 C29          7.3070     1.1410     0.3610 ca         1 D30      -0.022000
     13 C30          7.2050    -1.2550     0.4030 ca         1 D30      -0.022000
     14 C31          7.9170    -0.0870     0.6220 ca         1 D30      -0.248300
     15 C32          9.3100    -0.1060     1.1530 c3         1 D30       0.362300
     16 O21         -7.5980    -3.2220     2.3070 o          1 D30      -0.712000
     17 C17         -6.7940    -4.0380     1.8340 c          1 D30       0.729000
     18 O22         -6.7230    -5.2640     2.0530 o          1 D30      -0.712000
     19 C14         -5.7280    -3.5300     0.8490 c3         1 D30       0.000600
     20 C5          -4.9900    -1.5110    -0.1650 ca         1 D30       0.188100
     21 C8          -3.1440    -1.4220    -1.6910 ca         1 D30      -0.048000
     22 C12         -6.0960     2.0450     0.6400 c6         1 D30      -0.076400
     23 C4          -4.4570     2.1110    -1.2370 c6         1 D30      -0.032100
     24 C1          -4.3080     0.6160    -1.1030 ca         1 D30       0.004700
     25 S7          -2.1930     0.8490    -2.8800 ss         1 D30       0.014000
     26 C13         -0.6200     0.2900    -2.3090 ca         1 D30      -0.134000
     27 C16          0.2110    -0.4160    -3.1630 ca         1 D30      -0.047000
     28 C15         -0.1790     0.5980    -1.0100 ca         1 D30       0.175100
     29 O1          -1.0260     1.3060    -0.2500 os         1 D30      -0.306100
     30 C11         -1.6660     2.4590     1.6720 c1         1 D30      -0.153100
     31 C19         -2.4810     3.1610     2.2100 c1         1 D30      -0.092100
     32 C22         -3.9100     5.1720     1.9220 c3         1 D30      -0.087100
     33 C18          1.0710     0.1610    -0.5920 ca         1 D30      -0.186000
     34 C23          1.8990    -0.5490    -1.4630 ca         1 D30      -0.054300
     35 C24          3.2480    -1.0010    -0.9910 c3         1 D30       0.206900
     36 O25          4.0450     0.1610    -0.7930 os         1 D30      -0.333100
     37 F35         10.1370     0.6530     0.4180 f          1 D30      -0.118333
     38 F33          9.3760     0.3770     2.4060 f          1 D30      -0.118333
     39 F34          9.8330    -1.3360     1.1860 f          1 D30      -0.118333
     40 H6          -7.2220     0.3080     0.0630 hc         1 D30       0.067200
     41 H6A         -6.3010     0.0950     1.5220 hc         1 D30       0.067200
     42 H7          -0.4950     0.7170     1.6680 h1         1 D30       0.049200
     43 H7A          0.3180     2.1700     1.0770 h1         1 D30       0.049200
     44 H9          -6.5860     2.4030    -1.4200 hc         1 D30       0.030200
     45 H9A         -5.7360     3.7350    -0.6650 hc         1 D30       0.030200
     46 H10         -3.8330    -3.2280    -0.7950 ha         1 D30       0.125000
     47 H20          2.1110    -1.3770    -3.4300 ha         1 D30       0.111000
     48 H21         -4.3200     3.4550     3.1690 hc         1 D30       0.058200
     49 H21A        -3.0140     4.4560     3.7510 hc         1 D30       0.058200
     50 H27          5.5460     2.1480    -0.3120 ha         1 D30       0.131000
     51 H28          5.3820    -2.1490    -0.2330 ha         1 D30       0.131000
     52 H29          7.8380     2.0710     0.5240 ha         1 D30       0.126000
     53 H30          7.6470    -2.2230     0.5950 ha         1 D30       0.126000
     54 H14         -4.7340    -3.7690     1.2460 h1         1 D30       0.018200
     55 H14A        -5.8310    -4.0750    -0.0980 h1         1 D30       0.018200
     56 H8          -2.3650    -1.9330    -2.2430 ha         1 D30       0.103000
     57 H12         -7.0030     2.4800     1.0630 hc         1 D30       0.033200
     58 H12A        -5.2820     2.2750     1.3350 hc         1 D30       0.033200
     59 H4          -4.3310     2.4080    -2.2800 hc         1 D30       0.052200
     60 H4A         -3.6290     2.5790    -0.6930 hc         1 D30       0.052200
     61 H16         -0.1360    -0.6530    -4.1600 ha         1 D30       0.128000
     62 H22         -3.0670     5.7890     1.6140 hc         1 D30       0.038367
     63 H22A        -4.3880     4.7810     1.0240 hc         1 D30       0.038367
     64 H22B        -4.6280     5.8090     2.4360 hc         1 D30       0.038367
     65 H18          1.4270     0.3640     0.4100 ha         1 D30       0.119000
     66 H24          3.1600    -1.5590    -0.0520 h1         1 D30       0.045200
     67 H24A         3.7080    -1.6620    -1.7320 h1         1 D30       0.045200
     68 O11         -5.8610    -2.1390     0.6420 os         1 D30      -0.294100
@<TRIPOS>BOND
     1     1     3 1   
     2     1    20 ar  
     3     1    24 ar  
     4     2    21 ar  
     5     2    24 ar  
     6     2    25 1   
     7     3    22 1   
     8     3    40 1   
     9     3    41 1   
    10     4    29 1   
    11     4    30 1   
    12     4    42 1   
    13     4    43 1   
    14     5    22 1   
    15     5    23 1   
    16     5    44 1   
    17     5    45 1   
    18     6    20 ar  
    19     6    21 ar  
    20     6    46 1   
    21     7    27 ar  
    22     7    34 ar  
    23     7    47 1   
    24     8    31 1   
    25     8    32 1   
    26     8    48 1   
    27     8    49 1   
    28     9    10 ar  
    29     9    11 ar  
    30     9    36 1   
    31    10    12 ar  
    32    10    50 1   
    33    11    13 ar  
    34    11    51 1   
    35    12    14 ar  
    36    12    52 1   
    37    13    14 ar  
    38    13    53 1   
    39    14    15 1   
    40    15    37 1   
    41    15    38 1   
    42    15    39 1   
    43    16    17 1   
    44    17    18 1   
    45    17    19 1   
    46    19    54 1   
    47    19    55 1   
    48    19    68 1   
    49    20    68 1   
    50    21    56 1   
    51    22    57 1   
    52    22    58 1   
    53    23    24 1   
    54    23    59 1   
    55    23    60 1   
    56    25    26 1   
    57    26    27 ar  
    58    26    28 ar  
    59    27    61 1   
    60    28    29 1   
    61    28    33 ar  
    62    30    31 3   
    63    32    62 1   
    64    32    63 1   
    65    32    64 1   
    66    33    34 ar  
    67    33    65 1   
    68    34    35 1   
    69    35    36 1   
    70    35    66 1   
    71    35    67 1   
@<TRIPOS>SUBSTRUCTURE
     1 D30         1 TEMP              0 ****  ****    0 ROOT
