@<TRIPOS>MOLECULE
D31
   62    66     1     0     0
SMALL
No Charge or Current Charge


@<TRIPOS>ATOM
      1 N1          -8.5770    -1.8190     2.2080 n8         1 D31      -0.998200
      2 C2          -8.2320    -1.9470     0.7780 c3         1 D31       0.155800
      3 C3          -6.7130    -1.7800     0.4770 c6         1 D31      -0.064700
      4 C6          -6.4060    -2.0620    -1.0180 c6         1 D31      -0.072900
      5 C7          -4.9030    -1.8710    -1.3310 c6         1 D31       0.170800
      6 N8          -4.4350    -0.5070    -0.9620 n3         1 D31      -0.701600
      7 C9          -4.6770    -0.2250     0.4820 c6         1 D31       0.170800
      8 C10         -6.1740    -0.3710     0.8490 c6         1 D31      -0.072900
      9 C20         -3.0120    -0.2620    -1.3750 c3         1 D31       0.088800
     10 C21         -2.4320     1.1790    -1.2360 c          1 D31       0.606100
     11 N24         -1.0770     1.2030    -0.9380 ns         1 D31      -0.158000
     12 C25         -0.1610     2.2670    -0.7230 ca         1 D31       0.056000
     13 C26         -0.5070     3.6420    -0.7730 ca         1 D31      -0.147000
     14 C27          0.4620     4.6510    -0.5480 ca         1 D31      -0.064000
     15 C28          1.8010     4.3140    -0.2660 ca         1 D31      -0.113000
     16 C29          2.1330     2.9570    -0.2180 ca         1 D31      -0.064500
     17 C30          1.1790     1.9540    -0.4410 ca         1 D31      -0.252600
     18 C31          3.3980     2.3040     0.0420 cc         1 D31       0.319500
     19 C32          3.2300     0.9540    -0.0170 cc         1 D31      -0.319600
     20 C33          1.8440     0.6020    -0.3210 c          1 D31       0.658300
     21 N34          5.2760     1.4570     0.4310 na         1 D31      -0.017200
     22 C35          4.4150     0.3480     0.2270 cd         1 D31      -0.023300
     23 C36          4.7240    -1.1340     0.2680 c6         1 D31      -0.016400
     24 C37          5.7640    -1.5120    -0.8210 c6         1 D31      -0.069400
     25 C38          6.1060    -3.0220    -0.7740 c6         1 D31      -0.074900
     26 C39          6.6010    -3.4410     0.6320 c6         1 D31      -0.076400
     27 C40          5.5690    -3.0640     1.7250 c6         1 D31      -0.074900
     28 C41          5.2280    -1.5540     1.6760 c6         1 D31      -0.069400
     29 O53         -3.1180     2.1880    -1.3800 o          1 D31      -0.552100
     30 O54          1.3340    -0.5030    -0.4500 o          1 D31      -0.552100
     31 N55          4.6170     2.7060     0.3110 nd         1 D31      -0.476800
     32 HN11        -8.3620    -0.8640     2.5160 hn         1 D31       0.392000
     33 HN12        -9.5970    -1.8820     2.3110 hn         1 D31       0.392000
     34 H21         -8.5530    -2.9420     0.4390 h1         1 D31       0.027200
     35 H22         -8.7970    -1.1940     0.2120 h1         1 D31       0.027200
     36 H3          -6.1880    -2.5310     1.0840 hc         1 D31       0.058700
     37 H61         -6.7060    -3.0850    -1.2790 hc         1 D31       0.048950
     38 H62         -6.9980    -1.3900    -1.6560 hc         1 D31       0.048950
     39 H71         -4.3230    -2.6320    -0.7880 h1         1 D31       0.032450
     40 H72         -4.7440    -2.0490    -2.4050 h1         1 D31       0.032450
     41 H91         -4.0860    -0.9110     1.1060 h1         1 D31       0.032450
     42 H92         -4.3570     0.7960     0.7340 h1         1 D31       0.032450
     43 H101        -6.7520     0.4030     0.3270 hc         1 D31       0.048950
     44 H102        -6.2970    -0.1830     1.9240 hc         1 D31       0.048950
     45 H201        -2.3540    -0.9320    -0.8060 h1         1 D31       0.052200
     46 H202        -2.8830    -0.5310    -2.4320 h1         1 D31       0.052200
     47 H24         -0.6560     0.2860    -0.8550 hn         1 D31       0.180000
     48 H26         -1.5230     3.9570    -0.9850 ha         1 D31       0.152000
     49 H27          0.1700     5.6980    -0.5920 ha         1 D31       0.118000
     50 H28          2.5510     5.0830    -0.0920 ha         1 D31       0.131000
     51 H34          6.2700     1.4050     0.6440 hn         1 D31       0.374000
     52 H36          3.8000    -1.6920     0.0610 hc         1 D31       0.086700
     53 H371         5.3730    -1.2520    -1.8150 hc         1 D31       0.043450
     54 H372         6.6820    -0.9250    -0.6850 hc         1 D31       0.043450
     55 H381         5.2180    -3.6110    -1.0450 hc         1 D31       0.045200
     56 H382         6.8740    -3.2540    -1.5240 hc         1 D31       0.045200
     57 H391         6.7890    -4.5230     0.6540 hc         1 D31       0.041200
     58 H392         7.5620    -2.9530     0.8470 hc         1 D31       0.041200
     59 H401         4.6530    -3.6560     1.5890 hc         1 D31       0.045200
     60 H402         5.9640    -3.3250     2.7160 hc         1 D31       0.045200
     61 H411         6.1170    -0.9690     1.9470 hc         1 D31       0.043450
     62 H412         4.4620    -1.3240     2.4300 hc         1 D31       0.043450
@<TRIPOS>BOND
     1     1     2 1   
     2     1    32 1   
     3     1    33 1   
     4     2     3 1   
     5     2    34 1   
     6     2    35 1   
     7     3     4 1   
     8     3     8 1   
     9     3    36 1   
    10     4     5 1   
    11     4    37 1   
    12     4    38 1   
    13     5     6 1   
    14     5    39 1   
    15     5    40 1   
    16     6     7 1   
    17     6     9 1   
    18     7     8 1   
    19     7    41 1   
    20     7    42 1   
    21     8    43 1   
    22     8    44 1   
    23     9    10 1   
    24     9    45 1   
    25     9    46 1   
    26    10    11 1   
    27    10    29 2   
    28    11    12 1   
    29    11    47 1   
    30    12    13 ar  
    31    12    17 ar  
    32    13    14 ar  
    33    13    48 1   
    34    14    15 ar  
    35    14    49 1   
    36    15    16 ar  
    37    15    50 1   
    38    16    17 ar  
    39    16    18 1   
    40    17    20 1   
    41    18    19 1   
    42    18    31 2   
    43    19    20 1   
    44    19    22 2   
    45    20    30 2   
    46    21    22 1   
    47    21    31 1   
    48    21    51 1   
    49    22    23 1   
    50    23    24 1   
    51    23    28 1   
    52    23    52 1   
    53    24    25 1   
    54    24    53 1   
    55    24    54 1   
    56    25    26 1   
    57    25    55 1   
    58    25    56 1   
    59    26    27 1   
    60    26    57 1   
    61    26    58 1   
    62    27    28 1   
    63    27    59 1   
    64    27    60 1   
    65    28    61 1   
    66    28    62 1   
@<TRIPOS>SUBSTRUCTURE
     1 D31         1 TEMP              0 ****  ****    0 ROOT
