@<TRIPOS>MOLECULE
D31
   62    66     1     0     0
SMALL
abcg2


@<TRIPOS>ATOM
      1 N1          -9.0590    -1.3520     1.7240 n8         1 D31      -0.998200
      2 C2          -8.5590    -1.4810     0.3630 c3         1 D31       0.155800
      3 C3          -7.0380    -1.5560     0.3160 c6         1 D31      -0.064700
      4 C6          -6.5480    -1.8170    -1.1060 c6         1 D31      -0.072900
      5 C7          -5.0310    -1.8360    -1.1790 c6         1 D31       0.170800
      6 N8          -4.4690    -0.5930    -0.6790 n3         1 D31      -0.701600
      7 C9          -4.8580    -0.3610     0.7020 c6         1 D31       0.170800
      8 C10         -6.3700    -0.2890     0.8430 c6         1 D31      -0.072900
      9 C20         -3.0450    -0.5530    -0.8500 c3         1 D31       0.088800
     10 C21         -2.4870     0.8610    -0.7880 c          1 D31       0.606100
     11 N24         -1.1510     0.8800    -0.5150 ns         1 D31      -0.158000
     12 C25         -0.2800     1.9590    -0.4720 ca         1 D31       0.056000
     13 C26         -0.6740     3.3070    -0.5780 ca         1 D31      -0.147000
     14 C27          0.2680     4.3180    -0.5130 ca         1 D31      -0.064000
     15 C28          1.6310     4.0650    -0.3460 ca         1 D31      -0.113000
     16 C29          2.0160     2.7490    -0.2430 ca         1 D31      -0.064500
     17 C30          1.0780     1.7030    -0.3020 ca         1 D31      -0.252600
     18 C31          3.3230     2.1130    -0.0750 cc         1 D31       0.319500
     19 C32          3.1780     0.7170    -0.0310 cc         1 D31      -0.319600
     20 C33          1.7670     0.3780    -0.1660 c          1 D31       0.658300
     21 N34          5.2330     1.3270     0.1520 na         1 D31      -0.017200
     22 C35          4.4570     0.2230     0.1180 cd         1 D31      -0.023300
     23 C36          4.9950    -1.1620     0.2260 c6         1 D31      -0.016400
     24 C37          5.9520    -1.4880    -0.9300 c6         1 D31      -0.069400
     25 C38          6.4770    -2.9150    -0.8170 c6         1 D31      -0.074900
     26 C39          7.1500    -3.1560     0.5300 c6         1 D31      -0.076400
     27 C40          6.2050    -2.8290     1.6800 c6         1 D31      -0.074900
     28 C41          5.6780    -1.4010     1.5810 c6         1 D31      -0.069400
     29 O53         -3.1590     1.8490    -0.9950 o          1 D31      -0.552100
     30 O54          1.2290    -0.7130    -0.1690 o          1 D31      -0.552100
     31 N55          4.5670     2.4930     0.0350 nd         1 D31      -0.476800
     32 HN11        -8.8630    -0.4220     2.0750 hn         1 D31       0.392000
     33 HN12       -10.0680    -1.4250     1.7180 hn         1 D31       0.392000
     34 H21         -8.9660    -2.4050    -0.0570 h1         1 D31       0.027200
     35 H22         -8.8890    -0.6690    -0.3050 h1         1 D31       0.027200
     36 H3          -6.7220    -2.3970     0.9460 hc         1 D31       0.058700
     37 H61         -6.9360    -2.7710    -1.4730 hc         1 D31       0.048950
     38 H62         -6.9300    -1.0380    -1.7740 hc         1 D31       0.048950
     39 H71         -4.6530    -2.7080    -0.6150 h1         1 D31       0.032450
     40 H72         -4.7130    -1.9710    -2.2160 h1         1 D31       0.032450
     41 H91         -4.4700    -1.1600     1.3590 h1         1 D31       0.032450
     42 H92         -4.4160     0.5740     1.0500 h1         1 D31       0.032450
     43 H101        -6.7440     0.5800     0.2900 hc         1 D31       0.048950
     44 H102        -6.6110    -0.1270     1.8970 hc         1 D31       0.048950
     45 H201        -2.5050    -1.1990    -0.1360 h1         1 D31       0.052200
     46 H202        -2.7930    -0.9370    -1.8450 h1         1 D31       0.052200
     47 H24         -0.7080    -0.0200    -0.3680 hn         1 D31       0.180000
     48 H26         -1.7110     3.5650    -0.7090 ha         1 D31       0.152000
     49 H27         -0.0730     5.3420    -0.5970 ha         1 D31       0.118000
     50 H28          2.3480     4.8730    -0.3000 ha         1 D31       0.131000
     51 H34          6.2370     1.3560     0.2490 hn         1 D31       0.374000
     52 H36          4.1350    -1.8360     0.1580 hc         1 D31       0.086700
     53 H371         5.4430    -1.3430    -1.8850 hc         1 D31       0.043450
     54 H372         6.7990    -0.7930    -0.9130 hc         1 D31       0.043450
     55 H381         5.6460    -3.6180    -0.9410 hc         1 D31       0.045200
     56 H382         7.1760    -3.1120    -1.6330 hc         1 D31       0.045200
     57 H391         7.4910    -4.1910     0.6020 hc         1 D31       0.041200
     58 H392         8.0440    -2.5270     0.6050 hc         1 D31       0.041200
     59 H401         5.3590    -3.5250     1.6630 hc         1 D31       0.045200
     60 H402         6.7060    -2.9690     2.6400 hc         1 D31       0.045200
     61 H411         6.5080    -0.6980     1.7040 hc         1 D31       0.043450
     62 H412         4.9710    -1.2000     2.3900 hc         1 D31       0.043450
@<TRIPOS>BOND
     1     1     2 1   
     2     1    32 1   
     3     1    33 1   
     4     2     3 1   
     5     2    34 1   
     6     2    35 1   
     7     3     4 1   
     8     3     8 1   
     9     3    36 1   
    10     4     5 1   
    11     4    37 1   
    12     4    38 1   
    13     5     6 1   
    14     5    39 1   
    15     5    40 1   
    16     6     7 1   
    17     6     9 1   
    18     7     8 1   
    19     7    41 1   
    20     7    42 1   
    21     8    43 1   
    22     8    44 1   
    23     9    10 1   
    24     9    45 1   
    25     9    46 1   
    26    10    11 1   
    27    10    29 2   
    28    11    12 1   
    29    11    47 1   
    30    12    13 ar  
    31    12    17 ar  
    32    13    14 ar  
    33    13    48 1   
    34    14    15 ar  
    35    14    49 1   
    36    15    16 ar  
    37    15    50 1   
    38    16    17 ar  
    39    16    18 1   
    40    17    20 1   
    41    18    19 1   
    42    18    31 2   
    43    19    20 1   
    44    19    22 2   
    45    20    30 2   
    46    21    22 1   
    47    21    31 1   
    48    21    51 1   
    49    22    23 1   
    50    23    24 1   
    51    23    28 1   
    52    23    52 1   
    53    24    25 1   
    54    24    53 1   
    55    24    54 1   
    56    25    26 1   
    57    25    55 1   
    58    25    56 1   
    59    26    27 1   
    60    26    57 1   
    61    26    58 1   
    62    27    28 1   
    63    27    59 1   
    64    27    60 1   
    65    28    61 1   
    66    28    62 1   
@<TRIPOS>SUBSTRUCTURE
     1 D31         1 TEMP              0 ****  ****    0 ROOT
