@<TRIPOS>MOLECULE
D32
   58    60     1     0     0
SMALL
No Charge or Current Charge


@<TRIPOS>ATOM
      1 O22          7.5440    -5.0000    -0.4910 o          1 D32      -0.711500
      2 C17          7.5010    -3.7950    -0.7030 c          1 D32       0.729000
      3 O21          8.2720    -3.2260    -1.4690 o          1 D32      -0.711500
      4 C14          6.4110    -2.9710     0.0450 c3         1 D32       0.000600
      5 O11          6.4430    -1.5580    -0.2740 os         1 D32      -0.294100
      6 C5           5.5620    -0.6440     0.2780 ca         1 D32       0.194100
      7 C10          4.5750    -1.0510     1.1990 ca         1 D32      -0.228000
      8 C8           3.6920    -0.1140     1.7470 ca         1 D32      -0.046000
      9 C2           5.6630     0.7200    -0.0960 ca         1 D32      -0.133300
     10 C6           6.7520     1.1650    -1.0830 c3         1 D32      -0.035800
     11 C1           4.7490     1.6680     0.4470 ca         1 D32       0.004700
     12 C4           4.8000     3.1500     0.0480 c3         1 D32      -0.046800
     13 C3           3.7730     1.2360     1.3780 ca         1 D32      -0.178000
     14 S7           2.6020     2.3870     2.1100 ss         1 D32       0.018000
     15 C13          1.0630     1.5670     1.6900 ca         1 D32      -0.130000
     16 C16          0.2100     1.1550     2.7290 ca         1 D32      -0.052000
     17 C20         -0.9960     0.4990     2.4350 ca         1 D32      -0.133000
     18 C15          0.7030     1.3290     0.3460 ca         1 D32       0.171100
     19 O1           1.5550     1.7600    -0.6520 os         1 D32      -0.307100
     20 C7           1.3580     1.4280    -2.0340 c3         1 D32       0.251700
     21 C11          2.4930     1.9550    -2.8030 c1         1 D32      -0.155100
     22 C19          3.4470     2.3720    -3.4220 c1         1 D32      -0.195000
     23 C18         -0.5120     0.6670     0.0580 ca         1 D32      -0.183000
     24 C23         -1.3630     0.2490     1.0990 ca         1 D32      -0.059300
     25 C24         -2.6730    -0.4640     0.7830 c3         1 D32       0.207900
     26 O25         -3.6820     0.5270     0.5270 os         1 D32      -0.333100
     27 C26         -4.9800     0.1880     0.2040 ca         1 D32       0.182100
     28 C28         -5.8900     1.2280    -0.0280 ca         1 D32      -0.185500
     29 C30         -7.2260     0.9490    -0.3600 ca         1 D32      -0.022000
     30 C27         -5.4160    -1.1500     0.1050 ca         1 D32      -0.185500
     31 C29         -6.7520    -1.4330    -0.2270 ca         1 D32      -0.022000
     32 C31         -7.6680    -0.3870    -0.4710 ca         1 D32      -0.248300
     33 C32         -9.1270    -0.6980    -0.8220 c3         1 D32       0.362300
     34 F34         -9.8870    -0.8040     0.2910 f          1 D32      -0.118333
     35 F35         -9.6870     0.2630    -1.5930 f          1 D32      -0.118333
     36 F33         -9.2550    -1.8600    -1.5020 f          1 D32      -0.118333
     37 H14          5.4350    -3.3960    -0.2210 h1         1 D32       0.018200
     38 H14A         6.5670    -3.1180     1.1220 h1         1 D32       0.018200
     39 H10          4.4790    -2.0880     1.5040 ha         1 D32       0.125000
     40 H8           2.9390    -0.4410     2.4610 ha         1 D32       0.103000
     41 H6           6.3150     1.4230    -2.0550 hc         1 D32       0.042367
     42 H6A          7.2900     2.0440    -0.7090 hc         1 D32       0.042367
     43 H6B          7.5130     0.3980    -1.2640 hc         1 D32       0.042367
     44 H4           3.7960     3.5630    -0.0980 hc         1 D32       0.041033
     45 H4A          5.2980     3.7440     0.8220 hc         1 D32       0.041033
     46 H4B          5.3250     3.3270    -0.8960 hc         1 D32       0.041033
     47 H16          0.4850     1.3400     3.7650 ha         1 D32       0.127000
     48 H20         -1.6470     0.1850     3.2470 ha         1 D32       0.112000
     49 H7           1.3120     0.3390    -2.1690 h1         1 D32       0.048700
     50 H7A          0.4280     1.8700    -2.4140 h1         1 D32       0.048700
     51 H19          4.2990     2.7420    -3.9580 ha         1 D32       0.257000
     52 H18         -0.8140     0.4760    -0.9680 ha         1 D32       0.116000
     53 H24         -2.5320    -1.1080    -0.0950 h1         1 D32       0.044200
     54 H24A        -2.9600    -1.0980     1.6310 h1         1 D32       0.044200
     55 H28         -5.5580     2.2600     0.0530 ha         1 D32       0.131000
     56 H30         -7.9150     1.7760    -0.5280 ha         1 D32       0.125500
     57 H27         -4.7390    -1.9800     0.2830 ha         1 D32       0.131000
     58 H29         -7.0720    -2.4720    -0.2920 ha         1 D32       0.125500
@<TRIPOS>BOND
     1     1     2 1   
     2     2     3 1   
     3     2     4 1   
     4     4     5 1   
     5     4    37 1   
     6     4    38 1   
     7     5     6 1   
     8     6     7 ar  
     9     6     9 ar  
    10     7     8 ar  
    11     7    39 1   
    12     8    13 ar  
    13     8    40 1   
    14     9    10 1   
    15     9    11 ar  
    16    10    41 1   
    17    10    42 1   
    18    10    43 1   
    19    11    12 1   
    20    11    13 ar  
    21    12    44 1   
    22    12    45 1   
    23    12    46 1   
    24    13    14 1   
    25    14    15 1   
    26    15    16 ar  
    27    15    18 ar  
    28    16    17 ar  
    29    16    47 1   
    30    17    24 ar  
    31    17    48 1   
    32    18    19 1   
    33    18    23 ar  
    34    19    20 1   
    35    20    21 1   
    36    20    49 1   
    37    20    50 1   
    38    21    22 3   
    39    22    51 1   
    40    23    24 ar  
    41    23    52 1   
    42    24    25 1   
    43    25    26 1   
    44    25    53 1   
    45    25    54 1   
    46    26    27 1   
    47    27    28 ar  
    48    27    30 ar  
    49    28    29 ar  
    50    28    55 1   
    51    29    32 ar  
    52    29    56 1   
    53    30    31 ar  
    54    30    57 1   
    55    31    32 ar  
    56    31    58 1   
    57    32    33 1   
    58    33    34 1   
    59    33    35 1   
    60    33    36 1   
@<TRIPOS>SUBSTRUCTURE
     1 D32         1 TEMP              0 ****  ****    0 ROOT
