@<TRIPOS>MOLECULE
D32
   58    60     1     0     0
SMALL
bcc


@<TRIPOS>ATOM
      1 O22          7.5040    -4.7970    -0.6000 o          1 D32      -0.816800
      2 C17          7.4850    -3.5690    -0.8150 c          1 D32       0.939600
      3 O21          8.1990    -2.9160    -1.5880 o          1 D32      -0.816800
      4 C14          6.4230    -2.8210     0.0080 c3         1 D32      -0.022600
      5 O11          6.4550    -1.4400    -0.2810 os         1 D32      -0.270900
      6 C5           5.5560    -0.6220     0.2910 ca         1 D32       0.194100
      7 C10          4.6190    -1.0510     1.2280 ca         1 D32      -0.246000
      8 C8           3.7270    -0.1420     1.7680 ca         1 D32      -0.064000
      9 C2           5.6020     0.7280    -0.1010 ca         1 D32      -0.133300
     10 C6           6.6020     1.1710    -1.1350 c3         1 D32      -0.035800
     11 C1           4.7000     1.6390     0.4550 ca         1 D32       0.004700
     12 C4           4.7310     3.0840     0.0460 c3         1 D32      -0.046800
     13 C3           3.7490     1.1860     1.3790 ca         1 D32      -0.051100
     14 S7           2.5560     2.3060     2.0810 ss         1 D32      -0.235800
     15 C13          1.0460     1.4700     1.7130 ca         1 D32      -0.003100
     16 C16          0.2020     1.0930     2.7460 ca         1 D32      -0.070000
     17 C20         -1.0100     0.4660     2.4850 ca         1 D32      -0.151000
     18 C15          0.6650     1.2190     0.3840 ca         1 D32       0.171100
     19 O1           1.5200     1.6320    -0.5650 os         1 D32      -0.283900
     20 C7           1.2510     1.2880    -1.9090 c3         1 D32       0.228500
     21 C11          2.3490     1.7750    -2.7290 c1         1 D32      -0.155100
     22 C19          3.2390     2.1680    -3.4320 c1         1 D32      -0.107500
     23 C18         -0.5370     0.5720     0.1290 ca         1 D32      -0.201000
     24 C23         -1.3740     0.1940     1.1770 ca         1 D32      -0.059300
     25 C24         -2.6780    -0.4770     0.8690 c3         1 D32       0.184700
     26 O25         -3.6250     0.5480     0.5910 os         1 D32      -0.309900
     27 C26         -4.8710     0.1970     0.2380 ca         1 D32       0.182100
     28 C28         -5.7560     1.2500    -0.0170 ca         1 D32      -0.203500
     29 C30         -7.0550     0.9890    -0.3940 ca         1 D32      -0.040000
     30 C27         -5.3160    -1.1160     0.1150 ca         1 D32      -0.203500
     31 C29         -6.6280    -1.3680    -0.2680 ca         1 D32      -0.040000
     32 C31         -7.5030    -0.3270    -0.5260 ca         1 D32      -0.248300
     33 C32         -8.9180    -0.5720    -0.9300 c3         1 D32       0.726200
     34 F34         -9.7880    -0.1250    -0.0100 f          1 D32      -0.239633
     35 F35         -9.2280     0.0610    -2.0730 f          1 D32      -0.239633
     36 F33         -9.1840    -1.8680    -1.1190 f          1 D32      -0.239633
     37 H14          5.4350    -3.2410    -0.2210 h1         1 D32       0.018200
     38 H14A         6.6060    -3.0020     1.0750 h1         1 D32       0.018200
     39 H10          4.5770    -2.0810     1.5530 ha         1 D32       0.143000
     40 H8           3.0020    -0.4830     2.4970 ha         1 D32       0.121000
     41 H6           6.1130     1.7150    -1.9440 hc         1 D32       0.042367
     42 H6A          7.3530     1.8410    -0.7090 hc         1 D32       0.042367
     43 H6B          7.1300     0.3310    -1.5770 hc         1 D32       0.042367
     44 H4           3.9530     3.2850    -0.6930 hc         1 D32       0.041033
     45 H4A          4.5550     3.7500     0.8890 hc         1 D32       0.041033
     46 H4B          5.6840     3.3670    -0.3920 hc         1 D32       0.041033
     47 H16          0.5060     1.2800     3.7670 ha         1 D32       0.145000
     48 H20         -1.6530     0.1750     3.3060 ha         1 D32       0.130000
     49 H7           1.1590     0.2020    -2.0270 h1         1 D32       0.048700
     50 H7A          0.3120     1.7360    -2.2550 h1         1 D32       0.048700
     51 H19          4.0300     2.5210    -4.0530 ha         1 D32       0.169500
     52 H18         -0.8480     0.3520    -0.8850 ha         1 D32       0.134000
     53 H24         -2.5720    -1.1390     0.0040 h1         1 D32       0.044200
     54 H24A        -3.0110    -1.0810     1.7190 h1         1 D32       0.044200
     55 H28         -5.4130     2.2710     0.0830 ha         1 D32       0.149000
     56 H30         -7.7180     1.8230    -0.5860 ha         1 D32       0.143500
     57 H27         -4.6660    -1.9570     0.3060 ha         1 D32       0.149000
     58 H29         -6.9440    -2.3980    -0.3590 ha         1 D32       0.143500
@<TRIPOS>BOND
     1     1     2 1   
     2     2     3 1   
     3     2     4 1   
     4     4     5 1   
     5     4    37 1   
     6     4    38 1   
     7     5     6 1   
     8     6     7 ar  
     9     6     9 ar  
    10     7     8 ar  
    11     7    39 1   
    12     8    13 ar  
    13     8    40 1   
    14     9    10 1   
    15     9    11 ar  
    16    10    41 1   
    17    10    42 1   
    18    10    43 1   
    19    11    12 1   
    20    11    13 ar  
    21    12    44 1   
    22    12    45 1   
    23    12    46 1   
    24    13    14 1   
    25    14    15 1   
    26    15    16 ar  
    27    15    18 ar  
    28    16    17 ar  
    29    16    47 1   
    30    17    24 ar  
    31    17    48 1   
    32    18    19 1   
    33    18    23 ar  
    34    19    20 1   
    35    20    21 1   
    36    20    49 1   
    37    20    50 1   
    38    21    22 3   
    39    22    51 1   
    40    23    24 ar  
    41    23    52 1   
    42    24    25 1   
    43    25    26 1   
    44    25    53 1   
    45    25    54 1   
    46    26    27 1   
    47    27    28 ar  
    48    27    30 ar  
    49    28    29 ar  
    50    28    55 1   
    51    29    32 ar  
    52    29    56 1   
    53    30    31 ar  
    54    30    57 1   
    55    31    32 ar  
    56    31    58 1   
    57    32    33 1   
    58    33    34 1   
    59    33    35 1   
    60    33    36 1   
@<TRIPOS>SUBSTRUCTURE
     1 D32         1 TEMP              0 ****  ****    0 ROOT
