@<TRIPOS>MOLECULE
D34
   63    67     1     0     0
SMALL
No Charge or Current Charge


@<TRIPOS>ATOM
      1 C7          -6.2310     0.9470     0.3680 c3         1 D34       0.441500
      2 N2          -7.1360     0.4880    -0.6590 n7         1 D34      -0.898400
      3 N1          -6.2780     2.3620     0.1600 n8         1 D34      -1.008700
      4 C8          -8.5550     0.7870    -0.5590 cy         1 D34       0.147000
      5 C9          -9.5400    -0.0860    -1.4040 cy         1 D34      -0.093150
      6 C10        -10.5830     0.2040    -0.2740 cy         1 D34      -0.089900
      7 C11         -9.3460     0.2570     0.6830 cy         1 D34      -0.093150
      8 C1          -2.1930    -0.7330    -0.0410 ca         1 D34      -0.118000
      9 C2          -2.3860     0.5630     0.4810 ca         1 D34      -0.097250
     10 C3          -3.6770     1.1040     0.6080 ca         1 D34      -0.093250
     11 C4          -4.8140     0.3680     0.2070 ca         1 D34      -0.077800
     12 C5          -4.6190    -0.9370    -0.2970 ca         1 D34      -0.093250
     13 C6          -3.3280    -1.4790    -0.4240 ca         1 D34      -0.097250
     14 CA          -0.8330    -1.2770    -0.1630 cc         1 D34       0.195500
     15 O1           0.2730    -0.6130     0.3120 os         1 D34      -0.236000
     16 CB          -0.4830    -2.4650    -0.7550 cd         1 D34      -0.172000
     17 C22          0.9230    -2.5630    -0.6440 cd         1 D34      -0.172000
     18 C21          1.3380    -1.4280     0.0070 cc         1 D34       0.195500
     19 C15          2.7230    -1.0760     0.3460 ca         1 D34      -0.118000
     20 C16          3.0040     0.1750     0.9360 ca         1 D34      -0.097250
     21 C17          4.3220     0.5350     1.2690 ca         1 D34      -0.093250
     22 C18          5.3910    -0.3510     1.0210 ca         1 D34      -0.077800
     23 C19          5.1140    -1.5990     0.4320 ca         1 D34      -0.093250
     24 C20          3.7960    -1.9600     0.0980 ca         1 D34      -0.097250
     25 C12          6.8400     0.0140     1.3570 c3         1 D34       0.441500
     26 N3           7.2840     1.1980     0.6950 n7         1 D34      -0.898400
     27 N4           7.0220     0.4830     2.6830 n8         1 D34      -1.008700
     28 C13          7.6720     1.0080    -0.6870 cy         1 D34       0.147000
     29 C14          8.3300     2.2120    -1.4360 cy         1 D34      -0.093150
     30 CAX          9.0700     1.1260    -2.2870 cy         1 D34      -0.089900
     31 CBX          9.0030     0.2450    -0.9950 cy         1 D34      -0.093150
     32 H77         -6.6190     0.7010     1.3680 h2         1 D34       0.058700
     33 HN2         -6.7550     0.7170    -1.5800 hn         1 D34       0.424000
     34 HN1         -5.8960     2.5540    -0.7660 hn         1 D34       0.401000
     35 HN2A        -7.2650     2.6080     0.1100 hn         1 D34       0.401000
     36 H8          -8.7160     1.8590    -0.7330 h1         1 D34       0.024200
     37 H91         -9.7890     0.3010    -2.3980 hc         1 D34       0.056325
     38 H92         -9.2520    -1.1400    -1.4990 hc         1 D34       0.056325
     39 H01        -11.1200     1.1550    -0.3800 hc         1 D34       0.050950
     40 H02        -11.3110    -0.5900    -0.0760 hc         1 D34       0.050950
     41 H11         -9.0150    -0.7200     1.0550 hc         1 D34       0.056325
     42 H12         -9.4240     0.9460     1.5300 hc         1 D34       0.056325
     43 H3          -3.7900     2.1020     1.0250 ha         1 D34       0.125750
     44 H5          -5.4740    -1.5430    -0.5890 ha         1 D34       0.125750
     45 H6          -3.2260    -2.4870    -0.8160 ha         1 D34       0.119000
     46 HB          -1.1440    -3.1870    -1.2210 ha         1 D34       0.141000
     47 H16          1.5410    -3.3750    -1.0090 ha         1 D34       0.141000
     48 H2           2.2000     0.8780     1.1390 ha         1 D34       0.119000
     49 H13          4.5050     1.5070     1.7210 ha         1 D34       0.125750
     50 H14          5.9250    -2.2950     0.2280 ha         1 D34       0.125750
     51 H15          3.6240    -2.9330    -0.3520 ha         1 D34       0.119000
     52 H7B          7.5210    -0.8300     1.1710 h2         1 D34       0.058700
     53 H4           6.4860     1.8370     0.6940 hn         1 D34       0.424000
     54 HN'1         7.9420     0.9250     2.6610 hn         1 D34       0.401000
     55 HN'2         6.3730     1.2560     2.8200 hn         1 D34       0.401000
     56 H10          6.8170     0.5970    -1.2410 h1         1 D34       0.024200
     57 H9'1         7.6440     2.8660    -1.9850 hc         1 D34       0.056325
     58 H9'2         8.9880     2.8330    -0.8170 hc         1 D34       0.056325
     59 H0'1         8.4920     0.7380    -3.1350 hc         1 D34       0.050950
     60 H0'2        10.0730     1.3910    -2.6360 hc         1 D34       0.050950
     61 H1'1         9.8110     0.4250    -0.2760 hc         1 D34       0.056325
     62 H1'2         8.9090    -0.8340    -1.1540 hc         1 D34       0.056325
     63 H17         -1.5330     1.1600     0.7940 ha         1 D34       0.119000
@<TRIPOS>BOND
     1     1     2 1   
     2     1     3 1   
     3     1    11 1   
     4     1    32 1   
     5     2     4 1   
     6     2    33 1   
     7     3    34 1   
     8     3    35 1   
     9     4     5 1   
    10     4     7 1   
    11     4    36 1   
    12     5     6 1   
    13     5    37 1   
    14     5    38 1   
    15     6     7 1   
    16     6    39 1   
    17     6    40 1   
    18     7    41 1   
    19     7    42 1   
    20     8     9 ar  
    21     8    13 ar  
    22     8    14 1   
    23     9    10 ar  
    24     9    63 1   
    25    10    11 ar  
    26    10    43 1   
    27    11    12 ar  
    28    12    13 ar  
    29    12    44 1   
    30    13    45 1   
    31    14    15 1   
    32    14    16 2   
    33    15    18 1   
    34    16    17 1   
    35    16    46 1   
    36    17    18 2   
    37    17    47 1   
    38    18    19 1   
    39    19    20 ar  
    40    19    24 ar  
    41    20    21 ar  
    42    20    48 1   
    43    21    22 ar  
    44    21    49 1   
    45    22    23 ar  
    46    22    25 1   
    47    23    24 ar  
    48    23    50 1   
    49    24    51 1   
    50    25    26 1   
    51    25    27 1   
    52    25    52 1   
    53    26    28 1   
    54    26    53 1   
    55    27    54 1   
    56    27    55 1   
    57    28    29 1   
    58    28    31 1   
    59    28    56 1   
    60    29    30 1   
    61    29    57 1   
    62    29    58 1   
    63    30    31 1   
    64    30    59 1   
    65    30    60 1   
    66    31    61 1   
    67    31    62 1   
@<TRIPOS>SUBSTRUCTURE
     1 D34         1 TEMP              0 ****  ****    0 ROOT
