@<TRIPOS>MOLECULE
D34
   63    67     1     0     0
SMALL
bcc


@<TRIPOS>ATOM
      1 C7          -5.9940     1.1690     0.3990 c3         1 D34       0.441500
      2 N2          -6.9870     0.6660    -0.5320 n7         1 D34      -0.843200
      3 N1          -5.7290     2.5960     0.3930 n8         1 D34      -0.898300
      4 C8          -8.3200     1.1750    -0.3240 cy         1 D34       0.147000
      5 C9          -9.4540     0.4920    -1.1070 cy         1 D34      -0.093150
      6 C10        -10.3270     0.6060     0.1570 cy         1 D34      -0.089900
      7 C11         -9.0330     0.7670     0.9780 cy         1 D34      -0.093150
      8 C1          -2.3350    -1.1270    -0.0570 ca         1 D34      -0.118000
      9 C2          -2.2870     0.2390     0.2270 ca         1 D34      -0.115250
     10 C3          -3.4550     0.9760     0.3660 ca         1 D34      -0.111250
     11 C4          -4.7050     0.3850     0.2200 ca         1 D34      -0.077800
     12 C5          -4.7500    -0.9820    -0.0630 ca         1 D34      -0.111250
     13 C6          -3.5920    -1.7240    -0.1940 ca         1 D34      -0.115250
     14 CA          -1.1320    -1.9240    -0.2070 cc         1 D34       0.305200
     15 O1           0.0590    -1.3020    -0.0720 os         1 D34      -0.324800
     16 CB          -0.9180    -3.2450    -0.4690 cd         1 D34      -0.255300
     17 C22          0.4880    -3.4300    -0.4910 cd         1 D34      -0.255300
     18 C21          1.0440    -2.2100    -0.2420 cc         1 D34       0.305200
     19 C15          2.4160    -1.7500    -0.1440 ca         1 D34      -0.118000
     20 C16          2.7320    -0.3970    -0.0040 ca         1 D34      -0.115250
     21 C17          4.0540     0.0170     0.0740 ca         1 D34      -0.111250
     22 C18          5.0980    -0.9010     0.0170 ca         1 D34      -0.077800
     23 C19          4.7800    -2.2500    -0.1180 ca         1 D34      -0.111250
     24 C20          3.4660    -2.6720    -0.1990 ca         1 D34      -0.115250
     25 C12          6.5410    -0.4710     0.1530 c3         1 D34       0.441500
     26 N3           6.7380     0.8030    -0.5220 n7         1 D34      -0.843200
     27 N4           6.8870    -0.4450     1.5600 n8         1 D34      -0.898300
     28 C13          8.1190     1.2050    -0.6520 cy         1 D34       0.147000
     29 C14          8.3830     2.4670    -1.4880 cy         1 D34      -0.093150
     30 CAX          9.4870     2.8480    -0.4840 cy         1 D34      -0.089900
     31 CBX          8.8120     1.9090     0.5320 cy         1 D34      -0.093150
     32 H77         -6.3750     0.9370     1.4010 h2         1 D34       0.058700
     33 HN2         -6.6890     0.8560    -1.4840 hn         1 D34       0.368800
     34 HN1         -5.4720     2.9010    -0.5400 hn         1 D34       0.345800
     35 HN2A        -6.5680     3.1040     0.6400 hn         1 D34       0.345800
     36 H8          -8.4020     2.2650    -0.4520 h1         1 D34       0.024200
     37 H91         -9.8010     0.9660    -2.0260 hc         1 D34       0.056325
     38 H92         -9.1930    -0.5470    -1.3160 hc         1 D34       0.056325
     39 H01        -10.9270     1.5170     0.1580 hc         1 D34       0.050950
     40 H02        -10.9770    -0.2340     0.4000 hc         1 D34       0.050950
     41 H11         -8.6630    -0.2000     1.3260 hc         1 D34       0.056325
     42 H12         -9.0310     1.4700     1.8110 hc         1 D34       0.056325
     43 H3          -3.3850     2.0310     0.5930 ha         1 D34       0.143750
     44 H5          -5.7080    -1.4660    -0.1890 ha         1 D34       0.143750
     45 H6          -3.6720    -2.7830    -0.4080 ha         1 D34       0.137000
     46 HB          -1.6690    -4.0020    -0.6290 ha         1 D34       0.159000
     47 H16          1.0120    -4.3540    -0.6780 ha         1 D34       0.159000
     48 H2           1.9490     0.3490     0.0390 ha         1 D34       0.137000
     49 H13          4.2690     1.0730     0.1710 ha         1 D34       0.143750
     50 H14          5.5750    -2.9850    -0.1630 ha         1 D34       0.143750
     51 H15          3.2580    -3.7290    -0.3040 ha         1 D34       0.137000
     52 H7B          7.1690    -1.2590    -0.2940 h2         1 D34       0.058700
     53 H4           6.3370     0.7410    -1.4520 hn         1 D34       0.368800
     54 HN'1         7.8820    -0.3040     1.6770 hn         1 D34       0.345800
     55 HN'2         6.4310     0.3430     2.0060 hn         1 D34       0.345800
     56 H10          8.7610     0.3850    -1.0120 h1         1 D34       0.024200
     57 H9'1         8.6490     2.3400    -2.5380 hc         1 D34       0.056325
     58 H9'2         7.5350     3.1500    -1.4160 hc         1 D34       0.056325
     59 H0'1        10.4640     2.4760    -0.7940 hc         1 D34       0.050950
     60 H0'2         9.5860     3.8990    -0.2150 hc         1 D34       0.050950
     61 H1'1         8.0780     2.4420     1.1410 hc         1 D34       0.056325
     62 H1'2         9.4520     1.3160     1.1860 hc         1 D34       0.056325
     63 H17         -1.3380     0.7440     0.3450 ha         1 D34       0.137000
@<TRIPOS>BOND
     1     1     2 1   
     2     1     3 1   
     3     1    11 1   
     4     1    32 1   
     5     2     4 1   
     6     2    33 1   
     7     3    34 1   
     8     3    35 1   
     9     4     5 1   
    10     4     7 1   
    11     4    36 1   
    12     5     6 1   
    13     5    37 1   
    14     5    38 1   
    15     6     7 1   
    16     6    39 1   
    17     6    40 1   
    18     7    41 1   
    19     7    42 1   
    20     8     9 ar  
    21     8    13 ar  
    22     8    14 1   
    23     9    10 ar  
    24     9    63 1   
    25    10    11 ar  
    26    10    43 1   
    27    11    12 ar  
    28    12    13 ar  
    29    12    44 1   
    30    13    45 1   
    31    14    15 1   
    32    14    16 2   
    33    15    18 1   
    34    16    17 1   
    35    16    46 1   
    36    17    18 2   
    37    17    47 1   
    38    18    19 1   
    39    19    20 ar  
    40    19    24 ar  
    41    20    21 ar  
    42    20    48 1   
    43    21    22 ar  
    44    21    49 1   
    45    22    23 ar  
    46    22    25 1   
    47    23    24 ar  
    48    23    50 1   
    49    24    51 1   
    50    25    26 1   
    51    25    27 1   
    52    25    52 1   
    53    26    28 1   
    54    26    53 1   
    55    27    54 1   
    56    27    55 1   
    57    28    29 1   
    58    28    31 1   
    59    28    56 1   
    60    29    30 1   
    61    29    57 1   
    62    29    58 1   
    63    30    31 1   
    64    30    59 1   
    65    30    60 1   
    66    31    61 1   
    67    31    62 1   
@<TRIPOS>SUBSTRUCTURE
     1 D34         1 TEMP              0 ****  ****    0 ROOT
