@<TRIPOS>MOLECULE
D35
   75    79     1     0     0
SMALL
bcc


@<TRIPOS>ATOM
      1 C7          -5.8580     1.0160     0.4450 c3         1 D35       0.447500
      2 N2          -6.9830     0.5070    -0.3160 n7         1 D35      -0.841700
      3 N1          -5.5880     2.4420     0.3690 n8         1 D35      -0.902300
      4 C8          -8.3030     0.9920     0.0620 c6         1 D35       0.188000
      5 C9          -9.3050     0.5840    -1.0150 c6         1 D35      -0.078400
      6 C10        -10.7230     1.0200    -0.6660 c6         1 D35      -0.072400
      7 C11        -11.1530     0.4780     0.6930 c6         1 D35      -0.075400
      8 C12        -10.1530     0.8690     1.7750 c6         1 D35      -0.072400
      9 C13         -8.7370     0.4300     1.4150 c6         1 D35      -0.078400
     10 C1          -2.2800    -1.2550    -0.5170 ca         1 D35      -0.117000
     11 C2          -2.1920     0.0490    -0.0260 ca         1 D35      -0.114750
     12 C3          -3.3370     0.7750     0.2670 ca         1 D35      -0.113500
     13 C4          -4.6070     0.2320     0.0830 ca         1 D35      -0.108300
     14 C5          -4.6900    -1.0740    -0.4000 ca         1 D35      -0.113500
     15 C6          -3.5530    -1.8030    -0.6960 ca         1 D35      -0.114750
     16 CA          -1.1000    -2.0330    -0.8440 cc         1 D35       0.304200
     17 O1           0.1070    -1.5090    -0.5410 os         1 D35      -0.323800
     18 CB          -0.9220    -3.2490    -1.4360 cd         1 D35      -0.254300
     19 C24          0.4770    -3.4700    -1.4920 cd         1 D35      -0.254300
     20 C23          1.0660    -2.3760    -0.9320 cc         1 D35       0.304200
     21 C17          2.4500    -2.0120    -0.6880 ca         1 D35      -0.117000
     22 C18          2.7940    -0.8720     0.0460 ca         1 D35      -0.114750
     23 C19          4.1230    -0.5530     0.2720 ca         1 D35      -0.113500
     24 C20          5.1490    -1.3510    -0.2300 ca         1 D35      -0.108300
     25 C21          4.8050    -2.4810    -0.9640 ca         1 D35      -0.113500
     26 C22          3.4800    -2.8110    -1.1920 ca         1 D35      -0.114750
     27 C14          6.6050    -1.0410     0.0640 c3         1 D35       0.447500
     28 N3           6.8380     0.3770    -0.0980 n7         1 D35      -0.841700
     29 N4           7.0140    -1.4450     1.3980 n8         1 D35      -0.902300
     30 C15          8.2390     0.7920    -0.1290 c6         1 D35       0.188000
     31 C16          8.4190     1.9020    -1.1650 c6         1 D35      -0.078400
     32 CAX          9.8590     2.4010    -1.2210 c6         1 D35      -0.072400
     33 CBX         10.3450     2.8610     0.1490 c6         1 D35      -0.075400
     34 CCX         10.1690     1.7570     1.1860 c6         1 D35      -0.072400
     35 CDX          8.7230     1.2740     1.2380 c6         1 D35      -0.078400
     36 H77         -6.0680     0.8070     1.5000 h2         1 D35       0.057700
     37 HN2         -6.8280     0.6980    -1.3010 hn         1 D35       0.364300
     38 HN1         -5.4620     2.7240    -0.5960 hn         1 D35       0.346800
     39 HN2A        -6.3790     2.9660     0.7230 hn         1 D35       0.346800
     40 H8          -8.3330     2.0940     0.1300 h1         1 D35       0.022200
     41 H91         -9.0060     1.0130    -1.9760 hc         1 D35       0.046325
     42 H92         -9.2680    -0.5050    -1.1310 hc         1 D35       0.046325
     43 H01        -10.7740     2.1140    -0.6510 hc         1 D35       0.038700
     44 H02        -11.4150     0.6900    -1.4450 hc         1 D35       0.038700
     45 H11        -12.1510     0.8430     0.9480 hc         1 D35       0.039200
     46 H12        -11.2240    -0.6140     0.6430 hc         1 D35       0.039200
     47 H21        -10.1750     1.9550     1.9130 hc         1 D35       0.038700
     48 H22        -10.4430     0.4320     2.7340 hc         1 D35       0.038700
     49 H31         -8.6850    -0.6640     1.3660 hc         1 D35       0.046325
     50 H32         -8.0490     0.7410     2.2040 hc         1 D35       0.046325
     51 H3          -3.2390     1.7840     0.6410 ha         1 D35       0.145000
     52 H5          -5.6620    -1.5240    -0.5500 ha         1 D35       0.145000
     53 H6          -3.6630    -2.8150    -1.0670 ha         1 D35       0.138000
     54 HB          -1.6930    -3.9130    -1.7930 ha         1 D35       0.159000
     55 H16          0.9760    -4.3370    -1.8960 ha         1 D35       0.159000
     56 H2           2.0250    -0.2280     0.4510 ha         1 D35       0.138000
     57 H13          4.3640     0.3360     0.8410 ha         1 D35       0.145000
     58 H14          5.5850    -3.1140    -1.3710 ha         1 D35       0.145000
     59 H15          3.2480    -3.6930    -1.7750 ha         1 D35       0.138000
     60 H7B          7.2170    -1.6380    -0.6330 h2         1 D35       0.057700
     61 H4           6.3830     0.6740    -0.9520 hn         1 D35       0.364300
     62 HN'1         6.4290    -0.9820     2.0840 hn         1 D35       0.346800
     63 HN'2         6.8620    -2.4410     1.5100 hn         1 D35       0.346800
     64 H10          8.8760    -0.0540    -0.4360 h1         1 D35       0.022200
     65 H9'1         8.1120     1.5380    -2.1510 hc         1 D35       0.046325
     66 H9'2         7.7490     2.7330    -0.9130 hc         1 D35       0.046325
     67 H0'1        10.5050     1.5940    -1.5820 hc         1 D35       0.038700
     68 H0'2         9.9420     3.2130    -1.9480 hc         1 D35       0.038700
     69 H1'1        11.3920     3.1720     0.0950 hc         1 D35       0.039200
     70 H1'2         9.7740     3.7420     0.4610 hc         1 D35       0.039200
     71 H2'1        10.8270     0.9170     0.9370 hc         1 D35       0.038700
     72 H2'2        10.4810     2.1080     2.1730 hc         1 D35       0.038700
     73 H3'1         8.0740     2.0940     1.5670 hc         1 D35       0.046325
     74 H3'2         8.6120     0.4690     1.9650 hc         1 D35       0.046325
     75 H17         -1.2280     0.5160     0.1300 ha         1 D35       0.138000
@<TRIPOS>BOND
     1     1     2 1   
     2     1     3 1   
     3     1    13 1   
     4     1    36 1   
     5     2     4 1   
     6     2    37 1   
     7     3    38 1   
     8     3    39 1   
     9     4     5 1   
    10     4     9 1   
    11     4    40 1   
    12     5     6 1   
    13     5    41 1   
    14     5    42 1   
    15     6     7 1   
    16     6    43 1   
    17     6    44 1   
    18     7     8 1   
    19     7    45 1   
    20     7    46 1   
    21     8     9 1   
    22     8    47 1   
    23     8    48 1   
    24     9    49 1   
    25     9    50 1   
    26    10    11 ar  
    27    10    15 ar  
    28    10    16 1   
    29    11    12 ar  
    30    11    75 1   
    31    12    13 ar  
    32    12    51 1   
    33    13    14 ar  
    34    14    15 ar  
    35    14    52 1   
    36    15    53 1   
    37    16    17 1   
    38    16    18 2   
    39    17    20 1   
    40    18    19 1   
    41    18    54 1   
    42    19    20 2   
    43    19    55 1   
    44    20    21 1   
    45    21    22 ar  
    46    21    26 ar  
    47    22    23 ar  
    48    22    56 1   
    49    23    24 ar  
    50    23    57 1   
    51    24    25 ar  
    52    24    27 1   
    53    25    26 ar  
    54    25    58 1   
    55    26    59 1   
    56    27    28 1   
    57    27    29 1   
    58    27    60 1   
    59    28    30 1   
    60    28    61 1   
    61    29    62 1   
    62    29    63 1   
    63    30    31 1   
    64    30    35 1   
    65    30    64 1   
    66    31    32 1   
    67    31    65 1   
    68    31    66 1   
    69    32    33 1   
    70    32    67 1   
    71    32    68 1   
    72    33    34 1   
    73    33    69 1   
    74    33    70 1   
    75    34    35 1   
    76    34    71 1   
    77    34    72 1   
    78    35    73 1   
    79    35    74 1   
@<TRIPOS>SUBSTRUCTURE
     1 D35         1 TEMP              0 ****  ****    0 ROOT
