@<TRIPOS>MOLECULE
D35
   75    79     1     0     0
SMALL
No Charge or Current Charge


@<TRIPOS>ATOM
      1 C7          -5.8650     0.4860     0.9960 c3         1 D35       0.447500
      2 N2          -6.7550     0.7530    -0.1080 n7         1 D35      -0.896900
      3 N1          -5.8090     1.7730     1.6130 n8         1 D35      -1.012700
      4 C8          -8.1820     1.1080     0.0960 c6         1 D35       0.188000
      5 C9          -8.8560     1.3360    -1.2840 c6         1 D35      -0.078400
      6 C10        -10.3570     1.6920    -1.1360 c6         1 D35      -0.072400
      7 C11        -11.1120     0.6020    -0.3380 c6         1 D35      -0.075400
      8 C12        -10.4510     0.3650     1.0420 c6         1 D35      -0.072400
      9 C13         -8.9480     0.0150     0.8950 c6         1 D35      -0.078400
     10 C1          -1.9370    -0.9590    -0.3330 ca         1 D35      -0.117000
     11 C2          -2.0590    -0.1610     0.8230 ca         1 D35      -0.096750
     12 C3          -3.3150     0.3070     1.2480 ca         1 D35      -0.095500
     13 C4          -4.4860    -0.0020     0.5220 ca         1 D35      -0.108300
     14 C5          -4.3640    -0.8190    -0.6240 ca         1 D35      -0.095500
     15 C6          -3.1080    -1.2860    -1.0490 ca         1 D35      -0.096750
     16 CA          -0.6130    -1.4360    -0.7560 cc         1 D35       0.194500
     17 O1           0.5250    -1.2050    -0.0190 os         1 D35      -0.235000
     18 CB          -0.3280    -2.1370    -1.9010 cd         1 D35      -0.171000
     19 C24          1.0660    -2.3680    -1.8880 cd         1 D35      -0.171000
     20 C23          1.5410    -1.7930    -0.7360 cc         1 D35       0.194500
     21 C17          2.9400    -1.7660    -0.2880 ca         1 D35      -0.117000
     22 C18          3.2940    -1.0300     0.8620 ca         1 D35      -0.096750
     23 C19          4.6260    -0.9880     1.3100 ca         1 D35      -0.095500
     24 C20          5.6380    -1.6840     0.6130 ca         1 D35      -0.108300
     25 C21          5.2850    -2.4240    -0.5310 ca         1 D35      -0.095500
     26 C22          3.9530    -2.4660    -0.9790 ca         1 D35      -0.096750
     27 C14          7.1000    -1.6460     1.0610 c3         1 D35       0.447500
     28 N3           7.5810    -0.3280     1.3190 n7         1 D35      -0.896900
     29 N4           7.2810    -2.1220     2.3790 n8         1 D35      -1.012700
     30 C15          8.2270     0.4000     0.2070 c6         1 D35       0.188000
     31 C16          7.2220     0.7790    -0.9190 c6         1 D35      -0.078400
     32 CAX          7.9070     1.5960    -2.0440 c6         1 D35      -0.072400
     33 CBX          8.6060     2.8570    -1.4810 c6         1 D35      -0.075400
     34 CCX          9.6130     2.4820    -0.3670 c6         1 D35      -0.072400
     35 CDX          8.9230     1.6730     0.7590 c6         1 D35      -0.078400
     36 H77         -6.3000    -0.2490     1.6880 h2         1 D35       0.057700
     37 HN2         -6.2960     1.4010    -0.7500 hn         1 D35       0.419500
     38 HN1         -5.3840     2.4170     0.9460 hn         1 D35       0.402000
     39 HN2A        -6.7750     2.0780     1.7170 hn         1 D35       0.402000
     40 H8          -8.2450     2.0550     0.6530 h1         1 D35       0.022200
     41 H91         -8.3410     2.1440    -1.8220 hc         1 D35       0.046325
     42 H92         -8.7530     0.4340    -1.9020 hc         1 D35       0.046325
     43 H01        -10.4590     2.6610    -0.6280 hc         1 D35       0.038700
     44 H02        -10.8120     1.8100    -2.1280 hc         1 D35       0.038700
     45 H11        -12.1620     0.8970    -0.2030 hc         1 D35       0.039200
     46 H12        -11.1220    -0.3360    -0.9100 hc         1 D35       0.039200
     47 H21        -10.5620     1.2640     1.6640 hc         1 D35       0.038700
     48 H22        -10.9720    -0.4460     1.5700 hc         1 D35       0.038700
     49 H31         -8.8440    -0.9560     0.3910 hc         1 D35       0.046325
     50 H32         -8.5130    -0.1020     1.8950 hc         1 D35       0.046325
     51 H3          -3.3720     0.9110     2.1510 ha         1 D35       0.127000
     52 H5          -5.2490    -1.1000    -1.1910 ha         1 D35       0.127000
     53 H6          -3.0620    -1.9110    -1.9370 ha         1 D35       0.120000
     54 HB          -1.0250    -2.4500    -2.6700 ha         1 D35       0.141000
     55 H16          1.6380    -2.8910    -2.6460 ha         1 D35       0.141000
     56 H2           2.5360    -0.4830     1.4170 ha         1 D35       0.120000
     57 H13          4.8640    -0.4120     2.2000 ha         1 D35       0.127000
     58 H14          6.0500    -2.9690    -1.0810 ha         1 D35       0.127000
     59 H15          3.7220    -3.0500    -1.8650 ha         1 D35       0.120000
     60 H7B          7.7610    -2.1920     0.3720 h2         1 D35       0.057700
     61 H4           6.7780     0.2230     1.6230 hn         1 D35       0.419500
     62 HN'1         8.2000    -1.7570     2.6340 hn         1 D35       0.402000
     63 HN'2         6.6360    -1.5970     2.9660 hn         1 D35       0.402000
     64 H10          9.0050    -0.2480    -0.2240 h1         1 D35       0.022200
     65 H9'1         6.7860    -0.1250    -1.3610 hc         1 D35       0.046325
     66 H9'2         6.3880     1.3580    -0.4990 hc         1 D35       0.046325
     67 H0'1         8.6440     0.9660    -2.5610 hc         1 D35       0.038700
     68 H0'2         7.1630     1.8880    -2.7980 hc         1 D35       0.038700
     69 H1'1         9.1250     3.3890    -2.2900 hc         1 D35       0.039200
     70 H1'2         7.8530     3.5510    -1.0820 hc         1 D35       0.039200
     71 H2'1        10.4370     1.8940    -0.7950 hc         1 D35       0.038700
     72 H2'2        10.0630     3.3930     0.0500 hc         1 D35       0.038700
     73 H3'1         8.1870     2.3100     1.2690 hc         1 D35       0.046325
     74 H3'2         9.6680     1.3900     1.5150 hc         1 D35       0.046325
     75 H17         -1.1770     0.1020     1.4030 ha         1 D35       0.120000
@<TRIPOS>BOND
     1     1     2 1   
     2     1     3 1   
     3     1    13 1   
     4     1    36 1   
     5     2     4 1   
     6     2    37 1   
     7     3    38 1   
     8     3    39 1   
     9     4     5 1   
    10     4     9 1   
    11     4    40 1   
    12     5     6 1   
    13     5    41 1   
    14     5    42 1   
    15     6     7 1   
    16     6    43 1   
    17     6    44 1   
    18     7     8 1   
    19     7    45 1   
    20     7    46 1   
    21     8     9 1   
    22     8    47 1   
    23     8    48 1   
    24     9    49 1   
    25     9    50 1   
    26    10    11 ar  
    27    10    15 ar  
    28    10    16 1   
    29    11    12 ar  
    30    11    75 1   
    31    12    13 ar  
    32    12    51 1   
    33    13    14 ar  
    34    14    15 ar  
    35    14    52 1   
    36    15    53 1   
    37    16    17 1   
    38    16    18 2   
    39    17    20 1   
    40    18    19 1   
    41    18    54 1   
    42    19    20 2   
    43    19    55 1   
    44    20    21 1   
    45    21    22 ar  
    46    21    26 ar  
    47    22    23 ar  
    48    22    56 1   
    49    23    24 ar  
    50    23    57 1   
    51    24    25 ar  
    52    24    27 1   
    53    25    26 ar  
    54    25    58 1   
    55    26    59 1   
    56    27    28 1   
    57    27    29 1   
    58    27    60 1   
    59    28    30 1   
    60    28    61 1   
    61    29    62 1   
    62    29    63 1   
    63    30    31 1   
    64    30    35 1   
    65    30    64 1   
    66    31    32 1   
    67    31    65 1   
    68    31    66 1   
    69    32    33 1   
    70    32    67 1   
    71    32    68 1   
    72    33    34 1   
    73    33    69 1   
    74    33    70 1   
    75    34    35 1   
    76    34    71 1   
    77    34    72 1   
    78    35    73 1   
    79    35    74 1   
@<TRIPOS>SUBSTRUCTURE
     1 D35         1 TEMP              0 ****  ****    0 ROOT
