@<TRIPOS>MOLECULE
D36
   59    62     1     0     0
SMALL
No Charge or Current Charge


@<TRIPOS>ATOM
      1 S            6.0630     1.5460     0.4920 s6         1 D36       1.228100
      2 C1           5.8750     2.5940    -0.9450 c3         1 D36      -0.351100
      3 N1           5.2050     0.0850     0.1480 nh         1 D36      -0.753200
      4 O1           7.4830     1.1920     0.5950 o          1 D36      -0.531500
      5 C2           6.0030    -1.1020    -0.2320 c3         1 D36       0.233800
      6 N2           7.3100    -3.1470     0.5630 n8         1 D36      -0.997200
      7 O2           5.3960     2.1810     1.6340 o          1 D36      -0.531500
      8 C3           6.5940    -1.9050     0.9670 c3         1 D36       0.125800
      9 N3          -0.4050     0.0870    -0.0570 nu         1 D36      -0.923900
     10 C4           3.8080     0.0510     0.1310 ca         1 D36       0.585900
     11 N4          -2.6640    -0.3640    -0.0790 nb         1 D36      -0.264000
     12 C5           3.0980    -1.1050     0.5120 ca         1 D36      -0.166000
     13 N5          -5.0420    -1.1580    -0.1820 na         1 D36      -0.033100
     14 C6           1.6910    -1.1210     0.4600 ca         1 D36      -0.057000
     15 N6          -5.6710    -2.3880    -0.4280 nc         1 D36      -0.515100
     16 C7           1.0110     0.0260     0.0090 ca         1 D36       0.240000
     17 N7          -1.0690    -2.1310    -0.5030 nb         1 D36      -0.260000
     18 C8          -1.4140    -0.8550    -0.2150 ca         1 D36       0.411900
     19 N8           3.1760     1.1560    -0.2950 nb         1 D36      -0.720000
     20 C9          -3.6590    -1.2560    -0.2410 ca         1 D36       0.179500
     21 C10         -5.7710     0.1000     0.1050 c3         1 D36       0.116300
     22 C11         -6.5840    -0.0290     1.4230 c3         1 D36      -0.083400
     23 C12         -7.0880     1.2910     2.0490 c3         1 D36      -0.069900
     24 C13         -7.9400     2.1950     1.1280 c3         1 D36      -0.073900
     25 C14         -7.1230     2.8730     0.0060 c3         1 D36      -0.073900
     26 C15         -6.9080     2.0350    -1.2750 c3         1 D36      -0.069900
     27 C16         -6.6550     0.5180    -1.1010 c3         1 D36      -0.083400
     28 C17         -4.6580    -3.2400    -0.6380 cd         1 D36       0.395800
     29 C18         -3.3960    -2.5590    -0.5270 ca         1 D36      -0.382900
     30 C19         -2.0810    -3.0090    -0.6620 ca         1 D36       0.228900
     31 C20          1.8200     1.1420    -0.3450 ca         1 D36       0.341900
     32 H1           4.8350     2.9210    -1.0040 h1         1 D36       0.106700
     33 H1A          6.5430     3.4490    -0.8090 h1         1 D36       0.106700
     34 H1B          6.1600     2.0020    -1.8200 h1         1 D36       0.106700
     35 H2           5.3790    -1.7820    -0.8280 h1         1 D36       0.066700
     36 H2A          6.8260    -0.8050    -0.8960 h1         1 D36       0.066700
     37 HN2          7.6570    -3.6260     1.4040 hn         1 D36       0.397000
     38 HN2A         6.6380    -3.8180     0.1680 hn         1 D36       0.397000
     39 H3           7.2980    -1.2660     1.5170 h1         1 D36       0.045700
     40 H3A          5.7850    -2.1790     1.6580 h1         1 D36       0.045700
     41 HN3         -0.7810     1.0380    -0.0650 hn         1 D36       0.514000
     42 H5           3.6260    -1.9840     0.8630 ha         1 D36       0.130000
     43 H6           1.1510    -2.0050     0.7840 ha         1 D36       0.148000
     44 H10         -5.0120     0.8790     0.2520 h1         1 D36       0.082700
     45 H11         -7.4390    -0.6960     1.2560 hc         1 D36       0.052950
     46 H11A        -5.9560    -0.5280     2.1720 hc         1 D36       0.052950
     47 H12         -7.6870     1.0390     2.9330 hc         1 D36       0.039950
     48 H12A        -6.2280     1.8620     2.4190 hc         1 D36       0.039950
     49 H13         -8.7800     1.6300     0.7050 hc         1 D36       0.039950
     50 H13A        -8.3800     2.9840     1.7510 hc         1 D36       0.039950
     51 H14         -7.6290     3.8030    -0.2820 hc         1 D36       0.039950
     52 H14A        -6.1480     3.1790     0.4050 hc         1 D36       0.039950
     53 H15         -7.7830     2.1580    -1.9260 hc         1 D36       0.039950
     54 H15A        -6.0630     2.4700    -1.8240 hc         1 D36       0.039950
     55 H16         -6.1880     0.1610    -2.0270 hc         1 D36       0.052950
     56 H16A        -7.6180    -0.0050    -1.0370 hc         1 D36       0.052950
     57 H17         -4.8720    -4.2800    -0.8550 h4         1 D36       0.053800
     58 H19         -1.8320    -4.0440    -0.8930 h4         1 D36       0.029100
     59 H20          1.3540     2.0640    -0.6930 h4         1 D36       0.023100
@<TRIPOS>BOND
     1     1     2 1   
     2     1     3 1   
     3     1     4 2   
     4     1     7 2   
     5     2    32 1   
     6     2    33 1   
     7     2    34 1   
     8     3     5 1   
     9     3    10 1   
    10     5     8 1   
    11     5    35 1   
    12     5    36 1   
    13     6     8 1   
    14     6    37 1   
    15     6    38 1   
    16     8    39 1   
    17     8    40 1   
    18     9    16 1   
    19     9    18 1   
    20     9    41 1   
    21    10    12 ar  
    22    10    19 ar  
    23    11    18 ar  
    24    11    20 ar  
    25    12    14 ar  
    26    12    42 1   
    27    13    15 1   
    28    13    20 1   
    29    13    21 1   
    30    14    16 ar  
    31    14    43 1   
    32    15    28 2   
    33    16    31 ar  
    34    17    18 ar  
    35    17    30 ar  
    36    19    31 ar  
    37    20    29 ar  
    38    21    22 1   
    39    21    27 1   
    40    21    44 1   
    41    22    23 1   
    42    22    45 1   
    43    22    46 1   
    44    23    24 1   
    45    23    47 1   
    46    23    48 1   
    47    24    25 1   
    48    24    49 1   
    49    24    50 1   
    50    25    26 1   
    51    25    51 1   
    52    25    52 1   
    53    26    27 1   
    54    26    53 1   
    55    26    54 1   
    56    27    55 1   
    57    27    56 1   
    58    28    29 1   
    59    28    57 1   
    60    29    30 ar  
    61    30    58 1   
    62    31    59 1   
@<TRIPOS>SUBSTRUCTURE
     1 D36         1 TEMP              0 ****  ****    0 ROOT
