@<TRIPOS>MOLECULE
D36
   59    62     1     0     0
SMALL
abcg2


@<TRIPOS>ATOM
      1 S            5.9360     1.4980     0.3080 s6         1 D36       1.228100
      2 C1           5.7020     2.4750    -1.1540 c3         1 D36      -0.351100
      3 N1           5.1280     0.0590     0.0310 nh         1 D36      -0.753200
      4 O1           7.3490     1.1520     0.3810 o          1 D36      -0.531500
      5 C2           5.8980    -1.1510    -0.2550 c3         1 D36       0.233800
      6 N2           7.0320    -3.1180     0.5900 n8         1 D36      -0.997200
      7 O2           5.3280     2.1720     1.4420 o          1 D36      -0.531500
      8 C3           6.4180    -1.8630     0.9880 c3         1 D36       0.125800
      9 N3          -0.3960     0.1570     0.2930 nu         1 D36      -0.923900
     10 C4           3.7310     0.0140     0.1410 ca         1 D36       0.585900
     11 N4          -2.6120    -0.2790     0.0840 nb         1 D36      -0.264000
     12 C5           3.0640    -1.1700     0.4550 ca         1 D36      -0.166000
     13 N5          -4.8700    -1.0300    -0.2240 na         1 D36      -0.033100
     14 C6           1.6830    -1.1710     0.5010 ca         1 D36      -0.057000
     15 N6          -5.4890    -2.1820    -0.5560 nc         1 D36      -0.515100
     16 C7           0.9870     0.0090     0.2420 ca         1 D36       0.240000
     17 N7          -0.9990    -2.0030    -0.3030 nb         1 D36      -0.260000
     18 C8          -1.3730    -0.7490     0.0160 ca         1 D36       0.411900
     19 N8           3.0740     1.1360    -0.0910 nb         1 D36      -0.720000
     20 C9          -3.5370    -1.1860    -0.2000 ca         1 D36       0.179500
     21 C10         -5.6400     0.1680     0.0740 c3         1 D36       0.116300
     22 C11         -6.4610    -0.0650     1.3450 c3         1 D36      -0.083400
     23 C12         -7.0590     1.1870     1.9770 c3         1 D36      -0.069900
     24 C13         -7.9050     2.0740     1.0660 c3         1 D36      -0.073900
     25 C14         -7.0750     2.8170     0.0190 c3         1 D36      -0.073900
     26 C15         -6.7930     2.0450    -1.2720 c3         1 D36      -0.069900
     27 C16         -6.5120     0.5480    -1.1280 c3         1 D36      -0.083400
     28 C17         -4.5680    -3.0850    -0.7520 cd         1 D36       0.395800
     29 C18         -3.2810    -2.5250    -0.5440 ca         1 D36      -0.382900
     30 C19         -1.9390    -2.8820    -0.5800 ca         1 D36       0.228900
     31 C20          1.7540     1.1390    -0.0360 ca         1 D36       0.341900
     32 H1           4.6460     2.6920    -1.2780 h1         1 D36       0.106700
     33 H1A          6.2700     3.3950    -1.0210 h1         1 D36       0.106700
     34 H1B          6.0860     1.9230    -2.0090 h1         1 D36       0.106700
     35 H2           5.2430    -1.8120    -0.8250 h1         1 D36       0.066700
     36 H2A          6.7280    -0.9100    -0.9190 h1         1 D36       0.066700
     37 HN2          7.5470    -3.5060     1.3680 hn         1 D36       0.397000
     38 HN2A         6.3140    -3.7950     0.3670 hn         1 D36       0.397000
     39 H3           7.1760    -1.2390     1.4610 h1         1 D36       0.045700
     40 H3A          5.6060    -1.9740     1.7190 h1         1 D36       0.045700
     41 HN3         -0.7340     1.0990     0.4180 hn         1 D36       0.514000
     42 H5           3.5970    -2.0820     0.6820 ha         1 D36       0.130000
     43 H6           1.1630    -2.0810     0.7520 ha         1 D36       0.148000
     44 H10         -4.8900     0.9440     0.2490 h1         1 D36       0.082700
     45 H11         -7.2600    -0.7740     1.1070 hc         1 D36       0.052950
     46 H11A        -5.8260    -0.5530     2.0890 hc         1 D36       0.052950
     47 H12         -7.6610     0.8650     2.8300 hc         1 D36       0.039950
     48 H12A        -6.2510     1.7980     2.3940 hc         1 D36       0.039950
     49 H13         -8.6990     1.4900     0.5890 hc         1 D36       0.039950
     50 H13A        -8.4140     2.8070     1.6960 hc         1 D36       0.039950
     51 H14         -7.5720     3.7520    -0.2510 hc         1 D36       0.039950
     52 H14A        -6.1300     3.1140     0.4840 hc         1 D36       0.039950
     53 H15         -7.6430     2.1540    -1.9500 hc         1 D36       0.039950
     54 H15A        -5.9470     2.5200    -1.7760 hc         1 D36       0.039950
     55 H16         -6.0290     0.2090    -2.0470 hc         1 D36       0.052950
     56 H16A        -7.4490    -0.0100    -1.0630 hc         1 D36       0.052950
     57 H17         -4.8320    -4.0930    -1.0330 h4         1 D36       0.053800
     58 H19         -1.6160    -3.8850    -0.8360 h4         1 D36       0.029100
     59 H20          1.2660     2.0890    -0.2300 h4         1 D36       0.023100
@<TRIPOS>BOND
     1     1     2 1   
     2     1     3 1   
     3     1     4 2   
     4     1     7 2   
     5     2    32 1   
     6     2    33 1   
     7     2    34 1   
     8     3     5 1   
     9     3    10 1   
    10     5     8 1   
    11     5    35 1   
    12     5    36 1   
    13     6     8 1   
    14     6    37 1   
    15     6    38 1   
    16     8    39 1   
    17     8    40 1   
    18     9    16 1   
    19     9    18 1   
    20     9    41 1   
    21    10    12 ar  
    22    10    19 ar  
    23    11    18 ar  
    24    11    20 ar  
    25    12    14 ar  
    26    12    42 1   
    27    13    15 1   
    28    13    20 1   
    29    13    21 1   
    30    14    16 ar  
    31    14    43 1   
    32    15    28 2   
    33    16    31 ar  
    34    17    18 ar  
    35    17    30 ar  
    36    19    31 ar  
    37    20    29 ar  
    38    21    22 1   
    39    21    27 1   
    40    21    44 1   
    41    22    23 1   
    42    22    45 1   
    43    22    46 1   
    44    23    24 1   
    45    23    47 1   
    46    23    48 1   
    47    24    25 1   
    48    24    49 1   
    49    24    50 1   
    50    25    26 1   
    51    25    51 1   
    52    25    52 1   
    53    26    27 1   
    54    26    53 1   
    55    26    54 1   
    56    27    55 1   
    57    27    56 1   
    58    28    29 1   
    59    28    57 1   
    60    29    30 ar  
    61    30    58 1   
    62    31    59 1   
@<TRIPOS>SUBSTRUCTURE
     1 D36         1 TEMP              0 ****  ****    0 ROOT
