@<TRIPOS>MOLECULE
D37
   51    54     1     0     0
SMALL
No Charge or Current Charge


@<TRIPOS>ATOM
      1 N1           5.9530    -0.4320     0.2260 nu         1 D37      -0.890000
      2 N3          -1.8780    -0.4340     0.1490 nb         1 D37      -0.265000
      3 C4           2.4470    -1.3070    -0.4710 ca         1 D37      -0.048000
      4 C5           1.8140    -0.2650     0.2380 ca         1 D37       0.238000
      5 C6          -0.6620    -1.0210     0.1760 ca         1 D37       0.411900
      6 C7          -2.9230    -1.2780     0.0730 ca         1 D37       0.178500
      7 C8          -4.9490     0.2240     0.0220 c3         1 D37       0.113300
      8 C10         -6.3650     1.8110     1.5160 c3         1 D37      -0.067900
      9 C13         -6.1950     1.9410    -1.5360 c3         1 D37      -0.067900
     10 C15         -4.0460    -3.2310    -0.0430 cc         1 D37       0.394800
     11 C17         -1.4630    -3.1760     0.0790 ca         1 D37       0.227900
     12 S            6.9660     0.7680    -0.2750 s6         1 D37       1.223100
     13 O1           6.4510     1.2050    -1.5740 o          1 D37      -0.534000
     14 C1           6.8220     2.1020     0.8970 c3         1 D37      -0.346100
     15 C2           4.5930    -0.3790     0.1820 ca         1 D37       0.586900
     16 N7           4.0260     0.6180     0.8680 nb         1 D37      -0.711000
     17 C18          2.6690     0.6760     0.8830 ca         1 D37       0.341900
     18 C3           3.8530    -1.3660    -0.4860 ca         1 D37      -0.176000
     19 N6          -0.3990    -2.3480     0.1560 nb         1 D37      -0.258000
     20 C16         -2.7460    -2.6270     0.0360 ca         1 D37      -0.381900
     21 N5          -5.0140    -2.3040    -0.0570 nd         1 D37      -0.514100
     22 N4          -4.2960    -1.1060     0.0190 na         1 D37      -0.033100
     23 C14         -5.5190     0.5570    -1.3810 c3         1 D37      -0.083900
     24 C12         -7.5630     2.0430    -0.8250 c3         1 D37      -0.071900
     25 C11         -7.5200     2.4070     0.6780 c3         1 D37      -0.071900
     26 C9          -5.9670     0.3530     1.1880 c3         1 D37      -0.083900
     27 HN1          6.3430    -1.2390    -0.2340 hn         1 D37       0.516000
     28 H4           1.8710    -2.0490    -1.0140 ha         1 D37       0.146000
     29 H8          -4.1570     0.9590     0.2200 h1         1 D37       0.075700
     30 H10         -5.4810     2.4540     1.4200 hc         1 D37       0.040450
     31 H10A        -6.6560     1.8650     2.5720 hc         1 D37       0.040450
     32 H13         -5.5230     2.7380    -1.1950 hc         1 D37       0.040450
     33 H13A        -6.3580     2.1130    -2.6080 hc         1 D37       0.040450
     34 H15         -4.3460    -4.2700    -0.0920 h4         1 D37       0.053800
     35 H17         -1.2790    -4.2490     0.0560 h4         1 D37       0.029100
     36 H1           6.9970     1.6830     1.8920 h1         1 D37       0.108700
     37 H1A          7.5820     2.8460     0.6380 h1         1 D37       0.108700
     38 H1B          5.8170     2.5210     0.8090 h1         1 D37       0.108700
     39 H18          2.2410     1.5070     1.4430 h4         1 D37       0.025100
     40 H3           4.3590    -2.1650    -1.0200 ha         1 D37       0.129000
     41 HN2          0.0780     0.8060     0.5260 hn         1 D37       0.515000
     42 H14         -4.6930     0.5010    -2.1020 hc         1 D37       0.054450
     43 H14A        -6.2310    -0.2230    -1.6770 hc         1 D37       0.054450
     44 H12         -8.1680     2.8020    -1.3370 hc         1 D37       0.038200
     45 H12A        -8.1040     1.0970    -0.9510 hc         1 D37       0.038200
     46 H11         -8.4740     2.1020     1.1260 hc         1 D37       0.038200
     47 H11A        -7.4780     3.4990     0.7740 hc         1 D37       0.038200
     48 H9          -6.8600    -0.2520     0.9880 hc         1 D37       0.054450
     49 H9A         -5.5030    -0.0710     2.0880 hc         1 D37       0.054450
     50 N2           0.4020    -0.1340     0.2870 nu         1 D37      -0.928900
     51 O2           8.3050     0.1860    -0.1740 o          1 D37      -0.534000
@<TRIPOS>BOND
     1     1    12 1   
     2     1    15 1   
     3     1    27 1   
     4     2     5 ar  
     5     2     6 ar  
     6     3     4 ar  
     7     3    18 ar  
     8     3    28 1   
     9     4    17 ar  
    10     4    50 1   
    11     5    19 ar  
    12     5    50 1   
    13     6    20 ar  
    14     6    22 1   
    15     7    22 1   
    16     7    23 1   
    17     7    26 1   
    18     7    29 1   
    19     8    25 1   
    20     8    26 1   
    21     8    30 1   
    22     8    31 1   
    23     9    23 1   
    24     9    24 1   
    25     9    32 1   
    26     9    33 1   
    27    10    20 1   
    28    10    21 2   
    29    10    34 1   
    30    11    19 ar  
    31    11    20 ar  
    32    11    35 1   
    33    12    13 2   
    34    12    14 1   
    35    12    51 2   
    36    14    36 1   
    37    14    37 1   
    38    14    38 1   
    39    15    16 ar  
    40    15    18 ar  
    41    16    17 ar  
    42    17    39 1   
    43    18    40 1   
    44    21    22 1   
    45    23    42 1   
    46    23    43 1   
    47    24    25 1   
    48    24    44 1   
    49    24    45 1   
    50    25    46 1   
    51    25    47 1   
    52    26    48 1   
    53    26    49 1   
    54    41    50 1   
@<TRIPOS>SUBSTRUCTURE
     1 D37         1 TEMP              0 ****  ****    0 ROOT
