@<TRIPOS>MOLECULE
D37
   51    54     1     0     0
SMALL
abcg2


@<TRIPOS>ATOM
      1 N1           5.8530    -0.3820    -0.1560 nu         1 D37      -0.890000
      2 N3          -1.8740    -0.2630    -0.0060 nb         1 D37      -0.265000
      3 C4           2.3370    -1.2320    -0.7340 ca         1 D37      -0.048000
      4 C5           1.7360    -0.1280    -0.1250 ca         1 D37       0.238000
      5 C6          -0.6560    -0.7870     0.0080 ca         1 D37       0.411900
      6 C7          -2.8380    -1.1670     0.1030 ca         1 D37       0.178500
      7 C8          -4.8740     0.3050    -0.0020 c3         1 D37       0.113300
      8 C10         -6.1850     2.0090     1.3590 c3         1 D37      -0.067900
      9 C13         -6.4090     1.6190    -1.6070 c3         1 D37      -0.067900
     10 C15         -3.9550    -3.0860     0.3000 cc         1 D37       0.394800
     11 C17         -1.3150    -2.9660     0.2230 ca         1 D37       0.227900
     12 S            6.8530     0.9490    -0.0950 s6         1 D37       1.223100
     13 O1           6.3000     2.0420    -0.8750 o          1 D37      -0.534000
     14 C1           6.8460     1.4070     1.6150 c3         1 D37      -0.346100
     15 C2           4.4620    -0.3040    -0.1750 ca         1 D37       0.586900
     16 N7           3.9050     0.7430     0.4040 nb         1 D37      -0.711000
     17 C18          2.5830     0.8270     0.4260 ca         1 D37       0.341900
     18 C3           3.7130    -1.3240    -0.7580 ca         1 D37      -0.176000
     19 N6          -0.3360    -2.0920     0.1180 nb         1 D37      -0.258000
     20 C16         -2.6430    -2.5530     0.2210 ca         1 D37      -0.381900
     21 N5          -4.8370    -2.1260     0.2340 nd         1 D37      -0.514100
     22 N4          -4.1660    -0.9610     0.1170 na         1 D37      -0.033100
     23 C14         -5.6060     0.3490    -1.3410 c3         1 D37      -0.083900
     24 C12         -7.6700     1.7390    -0.7500 c3         1 D37      -0.071900
     25 C11         -7.4760     2.3760     0.6280 c3         1 D37      -0.071900
     26 C9          -5.7380     0.5510     1.2370 c3         1 D37      -0.083900
     27 HN1          6.2850    -1.1910    -0.5850 hn         1 D37       0.516000
     28 H4           1.7430    -2.0070    -1.1940 ha         1 D37       0.146000
     29 H8          -4.0840     1.0620    -0.0130 h1         1 D37       0.075700
     30 H10         -5.3680     2.6520     1.0180 hc         1 D37       0.040450
     31 H10A        -6.3160     2.2490     2.4170 hc         1 D37       0.040450
     32 H13         -5.7740     2.5040    -1.4940 hc         1 D37       0.040450
     33 H13A        -6.7030     1.5990    -2.6590 hc         1 D37       0.040450
     34 H15         -4.2640    -4.1150     0.4000 h4         1 D37       0.053800
     35 H17         -1.0370    -4.0100     0.3120 h4         1 D37       0.029100
     36 H1           7.1990     0.5660     2.2070 h1         1 D37       0.108700
     37 H1A          7.5210     2.2550     1.7270 h1         1 D37       0.108700
     38 H1B          5.8370     1.6850     1.9040 h1         1 D37       0.108700
     39 H18          2.1660     1.7070     0.9070 h4         1 D37       0.025100
     40 H3           4.1960    -2.1650    -1.2360 ha         1 D37       0.129000
     41 HN2          0.0740     1.0730    -0.0440 hn         1 D37       0.515000
     42 H14         -4.8600     0.2230    -2.1310 hc         1 D37       0.054450
     43 H14A        -6.2790    -0.5110    -1.4060 hc         1 D37       0.054450
     44 H12         -8.4230     2.3200    -1.2880 hc         1 D37       0.038200
     45 H12A        -8.1010     0.7390    -0.6350 hc         1 D37       0.038200
     46 H11         -8.3320     2.1050     1.2520 hc         1 D37       0.038200
     47 H11A        -7.5120     3.4650     0.5310 hc         1 D37       0.038200
     48 H9          -6.5990    -0.1250     1.2400 hc         1 D37       0.054450
     49 H9A         -5.1380     0.2920     2.1120 hc         1 D37       0.054450
     50 N2           0.3630     0.1080    -0.0920 nu         1 D37      -0.928900
     51 O2           8.1670     0.4310    -0.4450 o          1 D37      -0.534000
@<TRIPOS>BOND
     1     1    12 1   
     2     1    15 1   
     3     1    27 1   
     4     2     5 ar  
     5     2     6 ar  
     6     3     4 ar  
     7     3    18 ar  
     8     3    28 1   
     9     4    17 ar  
    10     4    50 1   
    11     5    19 ar  
    12     5    50 1   
    13     6    20 ar  
    14     6    22 1   
    15     7    22 1   
    16     7    23 1   
    17     7    26 1   
    18     7    29 1   
    19     8    25 1   
    20     8    26 1   
    21     8    30 1   
    22     8    31 1   
    23     9    23 1   
    24     9    24 1   
    25     9    32 1   
    26     9    33 1   
    27    10    20 1   
    28    10    21 2   
    29    10    34 1   
    30    11    19 ar  
    31    11    20 ar  
    32    11    35 1   
    33    12    13 2   
    34    12    14 1   
    35    12    51 2   
    36    14    36 1   
    37    14    37 1   
    38    14    38 1   
    39    15    16 ar  
    40    15    18 ar  
    41    16    17 ar  
    42    17    39 1   
    43    18    40 1   
    44    21    22 1   
    45    23    42 1   
    46    23    43 1   
    47    24    25 1   
    48    24    44 1   
    49    24    45 1   
    50    25    46 1   
    51    25    47 1   
    52    26    48 1   
    53    26    49 1   
    54    41    50 1   
@<TRIPOS>SUBSTRUCTURE
     1 D37         1 TEMP              0 ****  ****    0 ROOT
