@<TRIPOS>MOLECULE
D38
   61    62     1     0     0
SMALL
No Charge or Current Charge


@<TRIPOS>ATOM
      1 C1           4.4850     3.2020    -0.0970 ca         1 D38      -0.091000
      2 C2           5.8900     3.1610     0.0600 ca         1 D38      -0.119600
      3 C3           6.5640     1.9600    -0.2630 ca         1 D38      -0.091000
      4 C4           5.8550     0.8380    -0.7250 ca         1 D38      -0.116500
      5 C5           4.4570     0.8860    -0.8730 ca         1 D38      -0.146300
      6 C6           3.7780     2.0790    -0.5590 ca         1 D38      -0.116500
      7 C7           6.6570     4.3770     0.5600 c          1 D38       0.712600
      8 O8           6.0330     5.3950     0.8250 o          1 D38      -0.722500
      9 O9           7.8710     4.2950     0.6800 o          1 D38      -0.722500
     10 C10          3.6970    -0.3400    -1.3830 c3         1 D38       0.141900
     11 N11          2.5110    -0.6970    -0.5850 na         1 D38       0.131800
     12 C12          1.2070    -0.3450    -0.8250 cc         1 D38      -0.233000
     13 C13          0.5250    -0.9380     0.1980 cd         1 D38       0.212300
     14 N14          1.4130    -1.6120     1.0090 nd         1 D38      -0.372000
     15 N15          2.6220    -1.4690     0.5340 nc         1 D38      -0.197800
     16 C16         -0.9580    -0.9090     0.4670 c3         1 D38      -0.084700
     17 C17         -1.8260    -1.4130    -0.7240 c3         1 D38      -0.132700
     18 C18         -1.4650    -2.8500    -1.2320 c3         1 D38      -0.039700
     19 C19         -1.5510    -3.9580    -0.1520 c3         1 D38      -0.094600
     20 C20         -2.2870    -3.2390    -2.4830 c3         1 D38      -0.094600
     21 C21         -3.3310    -1.2400    -0.4050 c          1 D38       0.603100
     22 N22         -4.0020    -0.3800    -1.2500 ns         1 D38      -0.467900
     23 C23         -5.4300     0.0050    -1.1350 c3         1 D38      -0.033300
     24 C24         -6.0950     0.0560    -2.5470 c          1 D38       0.719000
     25 O25         -5.5510     0.7110    -3.4270 o          1 D38      -0.727500
     26 O26         -7.0910    -0.6270    -2.7410 o          1 D38      -0.727500
     27 O27         -3.8880    -1.8040     0.5280 o          1 D38      -0.620100
     28 C28         -5.6120     1.3460    -0.3760 c3         1 D38      -0.074400
     29 C29         -5.1070     1.3310     1.0870 c3         1 D38      -0.078400
     30 C30         -5.3750     2.6550     1.8340 c3         1 D38      -0.079400
     31 C31         -4.8650     2.6340     3.2900 c3         1 D38       0.144800
     32 N32         -5.1360     3.9080     3.9800 n8         1 D38      -0.999200
     33 H1           3.9330     4.1100     0.1390 ha         1 D38       0.127500
     34 H3           7.6450     1.8920    -0.1570 ha         1 D38       0.127500
     35 H4           6.3990    -0.0730    -0.9670 ha         1 D38       0.088500
     36 H6           2.6980     2.1420    -0.6740 ha         1 D38       0.088500
     37 H10          3.3720    -0.1520    -2.4140 h1         1 D38       0.052200
     38 H10A         4.3680    -1.2080    -1.4070 h1         1 D38       0.052200
     39 H12          0.8840     0.2630    -1.6590 h4         1 D38       0.156000
     40 H16         -1.1900    -1.4930     1.3650 hc         1 D38       0.064200
     41 H16A        -1.2520     0.1210     0.7010 hc         1 D38       0.064200
     42 H17         -1.6040    -0.7420    -1.5640 hc         1 D38       0.032700
     43 H18         -0.4170    -2.8190    -1.5570 hc         1 D38       0.037700
     44 H19         -2.5760    -4.0830     0.2130 hc         1 D38       0.038533
     45 H19A        -1.2240    -4.9190    -0.5660 hc         1 D38       0.038533
     46 H19B        -0.9020    -3.7340     0.7030 hc         1 D38       0.038533
     47 H20         -2.1900    -2.4770    -3.2650 hc         1 D38       0.038533
     48 H20A        -1.9310    -4.1910    -2.8970 hc         1 D38       0.038533
     49 H20B        -3.3500    -3.3520    -2.2410 hc         1 D38       0.038533
     50 HN22        -3.4630     0.0250    -2.0070 hn         1 D38       0.289500
     51 H23         -5.9550    -0.7780    -0.5730 h1         1 D38       0.058700
     52 H28         -5.0980     2.1450    -0.9260 hc         1 D38       0.045700
     53 H28A        -6.6790     1.6020    -0.3770 hc         1 D38       0.045700
     54 H29         -5.5930     0.5080     1.6260 hc         1 D38       0.032200
     55 H29A        -4.0280     1.1320     1.1000 hc         1 D38       0.032200
     56 H30         -4.8910     3.4780     1.2930 hc         1 D38       0.040700
     57 H30A        -6.4540     2.8570     1.8310 hc         1 D38       0.040700
     58 H31         -5.3580     1.8230     3.8440 h1         1 D38       0.024200
     59 H31A        -3.7810     2.4540     3.3000 h1         1 D38       0.024200
     60 HN32        -6.1530     4.0420     4.0420 hn         1 D38       0.381000
     61 HN3A        -4.8420     3.8260     4.9610 hn         1 D38       0.381000
@<TRIPOS>BOND
     1     1     2 ar  
     2     1     6 ar  
     3     1    33 1   
     4     2     3 ar  
     5     2     7 1   
     6     3     4 ar  
     7     3    34 1   
     8     4     5 ar  
     9     4    35 1   
    10     5     6 ar  
    11     5    10 1   
    12     6    36 1   
    13     7     8 1   
    14     7     9 1   
    15    10    11 1   
    16    10    37 1   
    17    10    38 1   
    18    11    12 1   
    19    11    15 1   
    20    12    13 2   
    21    12    39 1   
    22    13    14 1   
    23    13    16 1   
    24    14    15 2   
    25    16    17 1   
    26    16    40 1   
    27    16    41 1   
    28    17    18 1   
    29    17    21 1   
    30    17    42 1   
    31    18    19 1   
    32    18    20 1   
    33    18    43 1   
    34    19    44 1   
    35    19    45 1   
    36    19    46 1   
    37    20    47 1   
    38    20    48 1   
    39    20    49 1   
    40    21    22 1   
    41    21    27 2   
    42    22    23 1   
    43    22    50 1   
    44    23    24 1   
    45    23    28 1   
    46    23    51 1   
    47    24    25 1   
    48    24    26 1   
    49    28    29 1   
    50    28    52 1   
    51    28    53 1   
    52    29    30 1   
    53    29    54 1   
    54    29    55 1   
    55    30    31 1   
    56    30    56 1   
    57    30    57 1   
    58    31    32 1   
    59    31    58 1   
    60    31    59 1   
    61    32    60 1   
    62    32    61 1   
@<TRIPOS>SUBSTRUCTURE
     1 D38         1 TEMP              0 ****  ****    0 ROOT
