@<TRIPOS>MOLECULE
D38
   61    62     1     0     0
SMALL
abcg2


@<TRIPOS>ATOM
      1 C1           5.9520     1.4580     1.6050 ca         1 D38      -0.091000
      2 C2           7.1730     1.2080     0.9810 ca         1 D38      -0.119600
      3 C3           7.1810     1.0150    -0.3970 ca         1 D38      -0.091000
      4 C4           6.0030     1.0610    -1.1300 ca         1 D38      -0.116500
      5 C5           4.7890     1.3110    -0.5020 ca         1 D38      -0.146300
      6 C6           4.7750     1.5130     0.8760 ca         1 D38      -0.116500
      7 C7           8.4660     1.1450     1.7850 c          1 D38       0.712600
      8 O8           8.3650     1.3030     3.0170 o          1 D38      -0.722500
      9 O9           9.5130     0.9410     1.1410 o          1 D38      -0.722500
     10 C10          3.5170     1.3710    -1.3010 c3         1 D38       0.141900
     11 N11          2.5460     0.3890    -0.8530 na         1 D38       0.131800
     12 C12          1.3570     0.5960    -0.2620 cc         1 D38      -0.233000
     13 C13          0.8750    -0.6660    -0.0130 cd         1 D38       0.212300
     14 N14          1.8000    -1.5440    -0.4620 nd         1 D38      -0.372000
     15 N15          2.8000    -0.9000    -0.9630 nc         1 D38      -0.197800
     16 C16         -0.4150    -1.0790     0.6040 c3         1 D38      -0.084700
     17 C17         -1.5930    -1.0470    -0.3860 c3         1 D38      -0.132700
     18 C18         -1.4030    -2.0080    -1.5800 c3         1 D38      -0.039700
     19 C19         -1.4400    -3.4820    -1.1900 c3         1 D38      -0.094600
     20 C20         -2.4080    -1.7320    -2.6950 c3         1 D38      -0.094600
     21 C21         -2.8840    -1.3240     0.3700 c          1 D38       0.603100
     22 N22         -3.9470    -0.5990    -0.0050 ns         1 D38      -0.467900
     23 C23         -5.2730    -0.8520     0.5080 c3         1 D38      -0.033300
     24 C24         -5.8770    -2.1920     0.0140 c          1 D38       0.719000
     25 O25         -5.3600    -2.7420    -0.9730 o          1 D38      -0.727500
     26 O26         -6.8730    -2.5830     0.6580 o          1 D38      -0.727500
     27 O27         -2.9330    -2.1370     1.2860 o          1 D38      -0.620100
     28 C28         -6.1990     0.3080     0.1440 c3         1 D38      -0.074400
     29 C29         -5.7480     1.6610     0.6830 c3         1 D38      -0.078400
     30 C30         -6.7810     2.7550     0.4410 c3         1 D38      -0.079400
     31 C31         -6.3250     4.1180     0.9380 c3         1 D38       0.144800
     32 N32         -7.3480     5.1280     0.7040 n8         1 D38      -0.999200
     33 H1           5.9260     1.6110     2.6760 ha         1 D38       0.127500
     34 H3           8.1170     0.8180    -0.9010 ha         1 D38       0.127500
     35 H4           6.0290     0.9020    -2.2020 ha         1 D38       0.088500
     36 H6           3.8390     1.7140     1.3860 ha         1 D38       0.088500
     37 H10          3.0420     2.3480    -1.2100 h1         1 D38       0.052200
     38 H10A         3.7150     1.2020    -2.3590 h1         1 D38       0.052200
     39 H12          0.9610     1.5790    -0.0700 h4         1 D38       0.156000
     40 H16         -0.3050    -2.0780     1.0260 hc         1 D38       0.064200
     41 H16A        -0.6390    -0.4100     1.4380 hc         1 D38       0.064200
     42 H17         -1.6410    -0.0340    -0.8020 hc         1 D38       0.032700
     43 H18         -0.4060    -1.7930    -1.9770 hc         1 D38       0.037700
     44 H19         -2.4410    -3.7850    -0.8830 hc         1 D38       0.038533
     45 H19A        -1.1550    -4.0980    -2.0450 hc         1 D38       0.038533
     46 H19B        -0.7490    -3.7150    -0.3790 hc         1 D38       0.038533
     47 H20         -2.3760    -0.6870    -3.0130 hc         1 D38       0.038533
     48 H20A        -2.1810    -2.3440    -3.5700 hc         1 D38       0.038533
     49 H20B        -3.4250    -1.9640    -2.3760 hc         1 D38       0.038533
     50 HN22        -3.8610    -0.0170    -0.8230 hn         1 D38       0.289500
     51 H23         -5.2100    -0.9000     1.6000 h1         1 D38       0.058700
     52 H28         -6.3060     0.3630    -0.9460 hc         1 D38       0.045700
     53 H28A        -7.1900     0.0750     0.5380 hc         1 D38       0.045700
     54 H29         -5.5520     1.5730     1.7570 hc         1 D38       0.032200
     55 H29A        -4.7980     1.9560     0.2250 hc         1 D38       0.032200
     56 H30         -7.0070     2.8240    -0.6270 hc         1 D38       0.040700
     57 H30A        -7.7180     2.4810     0.9380 hc         1 D38       0.040700
     58 H31         -6.0290     4.0320     1.9940 h1         1 D38       0.024200
     59 H31A        -5.4240     4.4120     0.3930 h1         1 D38       0.024200
     60 HN32        -8.1510     4.9260     1.2870 hn         1 D38       0.381000
     61 HN3A        -7.0100     6.0300     1.0140 hn         1 D38       0.381000
@<TRIPOS>BOND
     1     1     2 ar  
     2     1     6 ar  
     3     1    33 1   
     4     2     3 ar  
     5     2     7 1   
     6     3     4 ar  
     7     3    34 1   
     8     4     5 ar  
     9     4    35 1   
    10     5     6 ar  
    11     5    10 1   
    12     6    36 1   
    13     7     8 1   
    14     7     9 1   
    15    10    11 1   
    16    10    37 1   
    17    10    38 1   
    18    11    12 1   
    19    11    15 1   
    20    12    13 2   
    21    12    39 1   
    22    13    14 1   
    23    13    16 1   
    24    14    15 2   
    25    16    17 1   
    26    16    40 1   
    27    16    41 1   
    28    17    18 1   
    29    17    21 1   
    30    17    42 1   
    31    18    19 1   
    32    18    20 1   
    33    18    43 1   
    34    19    44 1   
    35    19    45 1   
    36    19    46 1   
    37    20    47 1   
    38    20    48 1   
    39    20    49 1   
    40    21    22 1   
    41    21    27 2   
    42    22    23 1   
    43    22    50 1   
    44    23    24 1   
    45    23    28 1   
    46    23    51 1   
    47    24    25 1   
    48    24    26 1   
    49    28    29 1   
    50    28    52 1   
    51    28    53 1   
    52    29    30 1   
    53    29    54 1   
    54    29    55 1   
    55    30    31 1   
    56    30    56 1   
    57    30    57 1   
    58    31    32 1   
    59    31    58 1   
    60    31    59 1   
    61    32    60 1   
    62    32    61 1   
@<TRIPOS>SUBSTRUCTURE
     1 D38         1 TEMP              0 ****  ****    0 ROOT
