@<TRIPOS>MOLECULE
D39
  126   125     1     0     0
SMALL
abcg2


@<TRIPOS>ATOM
      1 O3           0.2330     5.5820    -0.7350 os         1 D39      -0.576400
      2 C4           0.3340     4.5230    -3.6270 c3         1 D39       0.174600
      3 C5           2.2930     3.2790    -3.2000 c          1 D39       0.603100
      4 O4           1.1590     3.7840    -2.7350 os         1 D39      -0.385100
      5 C6           3.0840     2.6150    -2.1080 c3         1 D39      -0.149400
      6 C7           4.1740     1.6840    -2.6110 c3         1 D39      -0.056400
      7 C8           4.9500     1.0510    -1.4630 c3         1 D39      -0.086400
      8 C9           6.0160     0.0760    -1.9450 c3         1 D39      -0.066400
      9 O5           2.6360     3.3720    -4.3540 o          1 D39      -0.547000
     10 C10          6.7870    -0.5880    -0.8130 c3         1 D39      -0.079400
     11 O6          -1.5310     4.0500    -2.2550 os         1 D39      -0.414100
     12 C11          7.8390    -1.5740    -1.3080 c3         1 D39      -0.071400
     13 C12          8.6010    -2.2650    -0.1860 c3         1 D39      -0.076400
     14 C13          9.6420    -3.2560    -0.6940 c3         1 D39      -0.073400
     15 O7          -3.4440     5.2050    -2.1870 o          1 D39      -0.519000
     16 C14         10.4010    -3.9650     0.4200 c3         1 D39      -0.075400
     17 C15         11.4330    -4.9590    -0.0980 c3         1 D39      -0.074400
     18 N            3.5770     2.9550     1.6090 n8         1 D39      -1.002200
     19 C            4.2960     4.1770     1.3100 c3         1 D39       0.019500
     20 O            2.3720     5.2510     0.3450 os         1 D39      -0.621400
     21 C1           3.4170     5.4280     1.2890 c3         1 D39       0.183600
     22 C16         12.1900    -5.6800     1.0090 c3         1 D39      -0.074400
     23 C17         13.2150    -6.6770     0.4830 c3         1 D39      -0.074400
     24 C18         13.9710    -7.4070     1.5850 c3         1 D39      -0.076400
     25 C19         14.9930    -8.4050     1.0540 c3         1 D39      -0.075400
     26 C2          -0.4110     6.1820    -1.8320 c3         1 D39       0.219600
     27 C20         15.7420    -9.1350     2.1600 c3         1 D39      -0.087100
     28 C21         -2.8240     4.1920    -1.9790 c          1 D39       0.606100
     29 C22         -3.3960     2.9270    -1.3980 c3         1 D39      -0.141400
     30 C23         -4.8480     3.0490    -0.9670 c3         1 D39      -0.065400
     31 C24         -5.3930     1.7300    -0.4330 c3         1 D39      -0.076400
     32 C25         -6.8470     1.8290     0.0110 c3         1 D39      -0.074400
     33 C26         -7.4050     0.5140     0.5420 c3         1 D39      -0.075400
     34 C27         -8.8630     0.6180     0.9700 c3         1 D39      -0.072400
     35 C28         -9.4160    -0.6890     1.5420 c3         1 D39      -0.046200
     36 C29        -10.8350    -0.5400     1.9960 c2         1 D39      -0.202200
     37 C3          -0.8150     5.1340    -2.8560 c3         1 D39       0.170300
     38 C30        -11.9020    -1.2290     1.5920 c2         1 D39      -0.230200
     39 C31        -11.9480    -2.3650     0.6180 c3         1 D39      -0.039200
     40 C32        -12.5600    -3.6220     1.2370 c3         1 D39      -0.073400
     41 C33        -12.6520    -4.7880     0.2610 c3         1 D39      -0.075400
     42 C34        -13.3120    -6.0190     0.8700 c3         1 D39      -0.074400
     43 C35        -13.3990    -7.1990    -0.0900 c3         1 D39      -0.074400
     44 C36        -14.0770    -8.4180     0.5210 c3         1 D39      -0.075400
     45 C37        -14.1670    -9.6040    -0.4320 c3         1 D39      -0.075400
     46 C38        -14.8450   -10.8150     0.1930 c3         1 D39      -0.088100
     47 C39          5.4430     4.4300     2.3150 c          1 D39       0.721000
     48 O1           0.6050     6.6650     1.5520 o          1 D39      -0.840000
     49 O2           1.8150     7.6060    -0.5420 o          1 D39      -0.840000
     50 O9           5.4060     3.8150     3.3970 o          1 D39      -0.747500
     51 P            1.2520     6.4420     0.2180 p5         1 D39       1.405800
     52 H1           0.8970     5.3280    -4.1050 h1         1 D39       0.038700
     53 H2          -0.0520     3.8710    -4.4160 h1         1 D39       0.038700
     54 H3           3.5190     3.4140    -1.4990 hc         1 D39       0.105200
     55 H4           2.3980     2.0870    -1.4400 hc         1 D39       0.105200
     56 H5           3.7310     0.8960    -3.2260 hc         1 D39       0.030200
     57 H6           4.8640     2.2300    -3.2580 hc         1 D39       0.030200
     58 H7           5.4150     1.8350    -0.8570 hc         1 D39       0.065700
     59 H8           4.2550     0.5330    -0.7940 hc         1 D39       0.065700
     60 H9           5.5440    -0.6960    -2.5620 hc         1 D39       0.021700
     61 H10          6.7180     0.6010    -2.6030 hc         1 D39       0.021700
     62 H11          7.2690     0.1800    -0.1980 hc         1 D39       0.051200
     63 H12          6.0840    -1.1080    -0.1520 hc         1 D39       0.051200
     64 H13          7.3540    -2.3310    -1.9350 hc         1 D39       0.026700
     65 H14          8.5480    -1.0510    -1.9590 hc         1 D39       0.026700
     66 H15          9.0920    -1.5120     0.4410 hc         1 D39       0.042700
     67 H16          7.8920    -2.7860     0.4670 hc         1 D39       0.042700
     68 H17          9.1490    -4.0020    -1.3270 hc         1 D39       0.031200
     69 H18         10.3540    -2.7330    -1.3420 hc         1 D39       0.031200
     70 H19         10.8990    -3.2210     1.0520 hc         1 D39       0.039200
     71 H20          9.6890    -4.4860     1.0690 hc         1 D39       0.039200
     72 H22         10.9330    -5.6980    -0.7350 hc         1 D39       0.033200
     73 H23         12.1470    -4.4370    -0.7450 hc         1 D39       0.033200
     74 H27          4.7450     4.0710     0.3150 h1         1 D39       0.033700
     75 H28          3.0030     5.5920     2.2920 h1         1 D39       0.032700
     76 H29          4.0250     6.3020     1.0340 h1         1 D39       0.032700
     77 H30         12.6930    -4.9440     1.6450 hc         1 D39       0.038200
     78 H31         11.4760    -6.2010     1.6570 hc         1 D39       0.038200
     79 H32         12.7110    -7.4100    -0.1570 hc         1 D39       0.034700
     80 H33         13.9300    -6.1550    -0.1620 hc         1 D39       0.034700
     81 H34         14.4780    -6.6760     2.2250 hc         1 D39       0.037200
     82 H35         13.2560    -7.9300     2.2310 hc         1 D39       0.037200
     83 H36         14.4860    -9.1330     0.4120 hc         1 D39       0.034700
     84 H37         15.7070    -7.8820     0.4110 hc         1 D39       0.034700
     85 H38         -1.3040     6.7240    -1.5050 h1         1 D39       0.031700
     86 H39          0.2310     6.9060    -2.3430 h1         1 D39       0.031700
     87 H40         16.2860    -8.4350     2.7960 hc         1 D39       0.029033
     88 H41         15.0550    -9.6920     2.8000 hc         1 D39       0.029033
     89 H42         16.4650    -9.8440     1.7540 hc         1 D39       0.029033
     90 H43         -3.2850     2.1400    -2.1510 hc         1 D39       0.072200
     91 H44         -2.7690     2.6160    -0.5570 hc         1 D39       0.072200
     92 H45         -4.9420     3.8190    -0.1970 hc         1 D39       0.050700
     93 H46         -5.4600     3.3780    -1.8110 hc         1 D39       0.050700
     94 H47         -5.3010     0.9600    -1.2060 hc         1 D39       0.037200
     95 H48         -4.7780     1.3910     0.4080 hc         1 D39       0.037200
     96 H49         -6.9390     2.5980     0.7850 hc         1 D39       0.037700
     97 H50         -7.4600     2.1700    -0.8300 hc         1 D39       0.037700
     98 H51         -7.3060    -0.2600    -0.2270 hc         1 D39       0.037200
     99 H52         -6.7990     0.1770     1.3910 hc         1 D39       0.037200
    100 H53         -8.9660     1.4090     1.7210 hc         1 D39       0.038700
    101 H54         -9.4730     0.9270     0.1150 hc         1 D39       0.038700
    102 H55         -9.3160    -1.4840     0.7990 hc         1 D39       0.045200
    103 H56         -8.7950    -0.9850     2.3950 hc         1 D39       0.045200
    104 H57        -10.9970     0.2440     2.7310 ha         1 D39       0.165000
    105 H58         -1.4420     5.6390    -3.5980 h1         1 D39       0.036700
    106 H59        -12.8630    -0.9590     2.0250 ha         1 D39       0.159000
    107 H60        -12.5550    -2.0730    -0.2470 hc         1 D39       0.044700
    108 H61        -10.9530    -2.5940     0.2310 hc         1 D39       0.044700
    109 H62        -11.9680    -3.9220     2.1080 hc         1 D39       0.037700
    110 H63        -13.5600    -3.3860     1.6160 hc         1 D39       0.037700
    111 H64        -13.2140    -4.4760    -0.6260 hc         1 D39       0.038200
    112 H65        -11.6480    -5.0490    -0.0910 hc         1 D39       0.038200
    113 H66        -12.7590    -6.3220     1.7660 hc         1 D39       0.035700
    114 H67        -14.3190    -5.7560     1.2110 hc         1 D39       0.035700
    115 H68        -13.9420    -6.8950    -0.9920 hc         1 D39       0.037200
    116 H69        -12.3910    -7.4730    -0.4220 hc         1 D39       0.037200
    117 H70        -13.5360    -8.7210     1.4240 hc         1 D39       0.036200
    118 H71        -15.0850    -8.1440     0.8510 hc         1 D39       0.036200
    119 H72        -14.7090    -9.3020    -1.3340 hc         1 D39       0.036700
    120 H73        -13.1600    -9.8790    -0.7630 hc         1 D39       0.036700
    121 H74        -14.3090   -11.1470     1.0840 hc         1 D39       0.029700
    122 H75        -15.8690   -10.5830     0.4930 hc         1 D39       0.029700
    123 H76        -14.8870   -11.6560    -0.5000 hc         1 D39       0.029700
    124 H24          3.2420     2.9950     2.5640 hn         1 D39       0.381500
    125 O8           6.2960     5.2710     1.9620 o          1 D39      -0.747500
    126 H25          2.7600     2.8910     1.0150 hn         1 D39       0.381500
@<TRIPOS>BOND
     1     1    26 1   
     2     1    51 1   
     3     2     4 1   
     4     2    37 1   
     5     2    52 1   
     6     2    53 1   
     7     3     4 1   
     8     3     5 1   
     9     3     9 2   
    10     5     6 1   
    11     5    54 1   
    12     5    55 1   
    13     6     7 1   
    14     6    56 1   
    15     6    57 1   
    16     7     8 1   
    17     7    58 1   
    18     7    59 1   
    19     8    10 1   
    20     8    60 1   
    21     8    61 1   
    22    10    12 1   
    23    10    62 1   
    24    10    63 1   
    25    11    28 1   
    26    11    37 1   
    27    12    13 1   
    28    12    64 1   
    29    12    65 1   
    30    13    14 1   
    31    13    66 1   
    32    13    67 1   
    33    14    16 1   
    34    14    68 1   
    35    14    69 1   
    36    15    28 2   
    37    16    17 1   
    38    16    70 1   
    39    16    71 1   
    40    17    22 1   
    41    17    72 1   
    42    17    73 1   
    43    18    19 1   
    44    18   124 1   
    45    18   126 1   
    46    19    21 1   
    47    19    47 1   
    48    19    74 1   
    49    20    21 1   
    50    20    51 1   
    51    21    75 1   
    52    21    76 1   
    53    22    23 1   
    54    22    77 1   
    55    22    78 1   
    56    23    24 1   
    57    23    79 1   
    58    23    80 1   
    59    24    25 1   
    60    24    81 1   
    61    24    82 1   
    62    25    27 1   
    63    25    83 1   
    64    25    84 1   
    65    26    37 1   
    66    26    85 1   
    67    26    86 1   
    68    27    87 1   
    69    27    88 1   
    70    27    89 1   
    71    28    29 1   
    72    29    30 1   
    73    29    90 1   
    74    29    91 1   
    75    30    31 1   
    76    30    92 1   
    77    30    93 1   
    78    31    32 1   
    79    31    94 1   
    80    31    95 1   
    81    32    33 1   
    82    32    96 1   
    83    32    97 1   
    84    33    34 1   
    85    33    98 1   
    86    33    99 1   
    87    34    35 1   
    88    34   100 1   
    89    34   101 1   
    90    35    36 1   
    91    35   102 1   
    92    35   103 1   
    93    36    38 2   
    94    36   104 1   
    95    37   105 1   
    96    38    39 1   
    97    38   106 1   
    98    39    40 1   
    99    39   107 1   
   100    39   108 1   
   101    40    41 1   
   102    40   109 1   
   103    40   110 1   
   104    41    42 1   
   105    41   111 1   
   106    41   112 1   
   107    42    43 1   
   108    42   113 1   
   109    42   114 1   
   110    43    44 1   
   111    43   115 1   
   112    43   116 1   
   113    44    45 1   
   114    44   117 1   
   115    44   118 1   
   116    45    46 1   
   117    45   119 1   
   118    45   120 1   
   119    46   121 1   
   120    46   122 1   
   121    46   123 1   
   122    47    50 1   
   123    47   125 1   
   124    48    51 1   
   125    49    51 1   
@<TRIPOS>SUBSTRUCTURE
     1 D39         1 TEMP              0 ****  ****    0 ROOT
