@<TRIPOS>MOLECULE
D39
  126   125     1     0     0
SMALL
No Charge or Current Charge


@<TRIPOS>ATOM
      1 O3          -1.1170     5.4600    -0.9700 os         1 D39      -0.576400
      2 C4           0.1670     5.3270    -3.7980 c3         1 D39       0.174600
      3 C5           2.3340     4.8200    -2.8800 c          1 D39       0.603100
      4 O4           0.9790     4.6500    -2.8220 os         1 D39      -0.385100
      5 C6           3.0430     4.1090    -1.7290 c3         1 D39      -0.149400
      6 C7           3.5410     2.7070    -2.1510 c3         1 D39      -0.056400
      7 C8           4.2650     1.9540    -1.0140 c3         1 D39      -0.086400
      8 C9           4.7940     0.5690    -1.4480 c3         1 D39      -0.066400
      9 O5           2.9200     5.4550    -3.7490 o          1 D39      -0.547000
     10 C10          5.5280    -0.1800    -0.3130 c3         1 D39      -0.079400
     11 O6          -1.6710     3.7930    -3.3240 os         1 D39      -0.414100
     12 C11          6.0940    -1.5460    -0.7580 c3         1 D39      -0.071400
     13 C12          6.8270    -2.2940     0.3770 c3         1 D39      -0.076400
     14 C13          7.4200    -3.6480    -0.0740 c3         1 D39      -0.073400
     15 O7          -3.9270     4.1710    -3.5650 o          1 D39      -0.519000
     16 C14          8.1470    -4.3980     1.0640 c3         1 D39      -0.075400
     17 C15          8.7540    -5.7440     0.6110 c3         1 D39      -0.074400
     18 N            2.2650     7.5270     1.7880 n8         1 D39      -1.002200
     19 C            2.7600     7.8750     0.3960 c3         1 D39       0.019500
     20 O            0.8660     6.8850    -0.8540 os         1 D39      -0.621400
     21 C1           1.6140     8.0970    -0.6420 c3         1 D39       0.183600
     22 C16          9.4720    -6.4980     1.7530 c3         1 D39      -0.074400
     23 C17         10.0840    -7.8420     1.3000 c3         1 D39      -0.074400
     24 C18         10.7940    -8.5990     2.4450 c3         1 D39      -0.076400
     25 C19         11.4060    -9.9420     1.9930 c3         1 D39      -0.075400
     26 C2          -1.7720     5.9780    -2.1410 c3         1 D39       0.219600
     27 C20         12.1110   -10.6990     3.1360 c3         1 D39      -0.087100
     28 C21         -2.9860     3.4120    -3.3720 c          1 D39       0.606100
     29 C22         -3.1470     1.9040    -3.1710 c3         1 D39      -0.141400
     30 C23         -3.4930     1.5660    -1.7010 c3         1 D39      -0.065400
     31 C24         -3.7230     0.0560    -1.4690 c3         1 D39      -0.076400
     32 C25         -4.0990    -0.2850    -0.0100 c3         1 D39      -0.074400
     33 C26         -4.3750    -1.7900     0.2020 c3         1 D39      -0.075400
     34 C27         -4.7960    -2.1320     1.6490 c3         1 D39      -0.072400
     35 C28         -5.1140    -3.6290     1.8450 c3         1 D39      -0.046200
     36 C29         -5.5860    -3.9400     3.2530 c2         1 D39      -0.202200
     37 C3          -1.3360     5.2010    -3.4280 c3         1 D39       0.170300
     38 C30         -6.8620    -4.0060     3.6740 c2         1 D39      -0.230200
     39 C31         -8.1030    -3.7380     2.8440 c3         1 D39      -0.039200
     40 C32         -8.6790    -5.0240     2.2170 c3         1 D39      -0.073400
     41 C33         -9.9230    -4.7660     1.3380 c3         1 D39      -0.075400
     42 C34        -10.4810    -6.0480     0.6830 c3         1 D39      -0.074400
     43 C35        -11.7190    -5.7850    -0.2030 c3         1 D39      -0.074400
     44 C36        -12.2700    -7.0650    -0.8710 c3         1 D39      -0.075400
     45 C37        -13.5080    -6.8010    -1.7560 c3         1 D39      -0.075400
     46 C38        -14.0590    -8.0770    -2.4240 c3         1 D39      -0.088100
     47 C39          3.7540     9.1000     0.2970 c          1 D39       0.721000
     48 O1           0.0350     5.7670     1.2990 o          1 D39      -0.840000
     49 O2          -1.2890     7.6340     0.3530 o          1 D39      -0.840000
     50 O9           3.3440    10.2150     0.5960 o          1 D39      -0.747500
     51 P           -0.3990     6.4720     0.0580 p5         1 D39       1.405800
     52 H1           0.4240     6.3940    -3.8430 h1         1 D39       0.038700
     53 H2           0.3320     4.8990    -4.7950 h1         1 D39       0.038700
     54 H3           3.8950     4.7170    -1.4100 hc         1 D39       0.105200
     55 H4           2.3320     3.9800    -0.9050 hc         1 D39       0.105200
     56 H5           2.6870     2.1090    -2.4940 hc         1 D39       0.030200
     57 H6           4.2220     2.8120    -3.0050 hc         1 D39       0.030200
     58 H7           5.1050     2.5630    -0.6550 hc         1 D39       0.065700
     59 H8           3.5780     1.8290    -0.1670 hc         1 D39       0.065700
     60 H9           3.9550    -0.0440    -1.8010 hc         1 D39       0.021700
     61 H10          5.4780     0.6960    -2.2960 hc         1 D39       0.021700
     62 H11          6.3500     0.4450     0.0580 hc         1 D39       0.051200
     63 H12          4.8360    -0.3300     0.5250 hc         1 D39       0.051200
     64 H13          5.2730    -2.1730    -1.1310 hc         1 D39       0.026700
     65 H14          6.7860    -1.3930    -1.5950 hc         1 D39       0.026700
     66 H15          7.6340    -1.6590     0.7640 hc         1 D39       0.042700
     67 H16          6.1290    -2.4640     1.2060 hc         1 D39       0.042700
     68 H17          6.6140    -4.2810    -0.4660 hc         1 D39       0.031200
     69 H18          8.1230    -3.4750    -0.8980 hc         1 D39       0.031200
     70 H19          8.9460    -3.7600     1.4630 hc         1 D39       0.039200
     71 H20          7.4410    -4.5780     1.8840 hc         1 D39       0.039200
     72 H22          7.9570    -6.3810     0.2060 hc         1 D39       0.033200
     73 H23          9.4650    -5.5630    -0.2040 hc         1 D39       0.033200
     74 H27          3.3250     6.9990     0.0470 h1         1 D39       0.033700
     75 H28          0.9620     8.9140    -0.3040 h1         1 D39       0.032700
     76 H29          2.0620     8.4140    -1.5930 h1         1 D39       0.032700
     77 H30         10.2660    -5.8600     2.1610 hc         1 D39       0.038200
     78 H31          8.7600    -6.6820     2.5660 hc         1 D39       0.038200
     79 H32          9.2920    -8.4770     0.8860 hc         1 D39       0.034700
     80 H33         10.8030    -7.6560     0.4920 hc         1 D39       0.034700
     81 H34         11.5860    -7.9630     2.8610 hc         1 D39       0.037200
     82 H35         10.0750    -8.7850     3.2530 hc         1 D39       0.037200
     83 H36         10.6170   -10.5800     1.5760 hc         1 D39       0.034700
     84 H37         12.1290    -9.7600     1.1880 hc         1 D39       0.034700
     85 H38         -2.8600     5.9130    -2.0180 h1         1 D39       0.031700
     86 H39         -1.5330     7.0400    -2.2900 h1         1 D39       0.031700
     87 H40         12.9310   -10.1000     3.5500 hc         1 D39       0.029033
     88 H41         11.4040   -10.9270     3.9430 hc         1 D39       0.029033
     89 H42         12.5280   -11.6440     2.7680 hc         1 D39       0.029033
     90 H43         -3.9520     1.5420    -3.8200 hc         1 D39       0.072200
     91 H44         -2.2020     1.4040    -3.4120 hc         1 D39       0.072200
     92 H45         -2.6830     1.9170    -1.0480 hc         1 D39       0.050700
     93 H46         -4.3980     2.1150    -1.4100 hc         1 D39       0.050700
     94 H47         -4.5220    -0.2910    -2.1350 hc         1 D39       0.037200
     95 H48         -2.8150    -0.4940    -1.7450 hc         1 D39       0.037200
     96 H49         -3.2880     0.0330     0.6580 hc         1 D39       0.037700
     97 H50         -4.9920     0.2860     0.2730 hc         1 D39       0.037700
     98 H51         -5.1670    -2.1090    -0.4860 hc         1 D39       0.037200
     99 H52         -3.4760    -2.3620    -0.0580 hc         1 D39       0.037200
    100 H53         -3.9960    -1.8390     2.3400 hc         1 D39       0.038700
    101 H54         -5.6820    -1.5420     1.9140 hc         1 D39       0.038700
    102 H55         -5.8730    -3.9300     1.1130 hc         1 D39       0.045200
    103 H56         -4.2210    -4.2240     1.6140 hc         1 D39       0.045200
    104 H57         -4.7750    -4.1450     3.9550 ha         1 D39       0.165000
    105 H58         -1.8880     5.6420    -4.2680 h1         1 D39       0.036700
    106 H59         -7.0730    -4.2550     4.7160 ha         1 D39       0.159000
    107 H60         -8.8700    -3.2620     3.4690 hc         1 D39       0.044700
    108 H61         -7.8800    -3.0210     2.0440 hc         1 D39       0.044700
    109 H62         -7.9020    -5.5030     1.6090 hc         1 D39       0.037700
    110 H63         -8.9400    -5.7290     3.0170 hc         1 D39       0.037700
    111 H64        -10.7070    -4.3030     1.9510 hc         1 D39       0.038200
    112 H65         -9.6640    -4.0450     0.5520 hc         1 D39       0.038200
    113 H66         -9.6950    -6.5120     0.0740 hc         1 D39       0.035700
    114 H67        -10.7460    -6.7680     1.4680 hc         1 D39       0.035700
    115 H68        -12.5080    -5.3290     0.4080 hc         1 D39       0.037200
    116 H69        -11.4560    -5.0580    -0.9820 hc         1 D39       0.037200
    117 H70        -11.4810    -7.5200    -1.4840 hc         1 D39       0.036200
    118 H71        -12.5320    -7.7930    -0.0940 hc         1 D39       0.036200
    119 H72        -14.3010    -6.3480    -1.1470 hc         1 D39       0.036700
    120 H73        -13.2500    -6.0740    -2.5370 hc         1 D39       0.036700
    121 H74        -13.3010    -8.5340    -3.0720 hc         1 D39       0.029700
    122 H75        -14.3590    -8.8130    -1.6680 hc         1 D39       0.029700
    123 H76        -14.9360    -7.8390    -3.0380 hc         1 D39       0.029700
    124 H24          1.7600     8.3340     2.1690 hn         1 D39       0.381500
    125 O8           4.9170     8.8840    -0.0220 o          1 D39      -0.747500
    126 H25          1.5300     6.8030     1.6940 hn         1 D39       0.381500
@<TRIPOS>BOND
     1     1    26 1   
     2     1    51 1   
     3     2     4 1   
     4     2    37 1   
     5     2    52 1   
     6     2    53 1   
     7     3     4 1   
     8     3     5 1   
     9     3     9 2   
    10     5     6 1   
    11     5    54 1   
    12     5    55 1   
    13     6     7 1   
    14     6    56 1   
    15     6    57 1   
    16     7     8 1   
    17     7    58 1   
    18     7    59 1   
    19     8    10 1   
    20     8    60 1   
    21     8    61 1   
    22    10    12 1   
    23    10    62 1   
    24    10    63 1   
    25    11    28 1   
    26    11    37 1   
    27    12    13 1   
    28    12    64 1   
    29    12    65 1   
    30    13    14 1   
    31    13    66 1   
    32    13    67 1   
    33    14    16 1   
    34    14    68 1   
    35    14    69 1   
    36    15    28 2   
    37    16    17 1   
    38    16    70 1   
    39    16    71 1   
    40    17    22 1   
    41    17    72 1   
    42    17    73 1   
    43    18    19 1   
    44    18   124 1   
    45    18   126 1   
    46    19    21 1   
    47    19    47 1   
    48    19    74 1   
    49    20    21 1   
    50    20    51 1   
    51    21    75 1   
    52    21    76 1   
    53    22    23 1   
    54    22    77 1   
    55    22    78 1   
    56    23    24 1   
    57    23    79 1   
    58    23    80 1   
    59    24    25 1   
    60    24    81 1   
    61    24    82 1   
    62    25    27 1   
    63    25    83 1   
    64    25    84 1   
    65    26    37 1   
    66    26    85 1   
    67    26    86 1   
    68    27    87 1   
    69    27    88 1   
    70    27    89 1   
    71    28    29 1   
    72    29    30 1   
    73    29    90 1   
    74    29    91 1   
    75    30    31 1   
    76    30    92 1   
    77    30    93 1   
    78    31    32 1   
    79    31    94 1   
    80    31    95 1   
    81    32    33 1   
    82    32    96 1   
    83    32    97 1   
    84    33    34 1   
    85    33    98 1   
    86    33    99 1   
    87    34    35 1   
    88    34   100 1   
    89    34   101 1   
    90    35    36 1   
    91    35   102 1   
    92    35   103 1   
    93    36    38 2   
    94    36   104 1   
    95    37   105 1   
    96    38    39 1   
    97    38   106 1   
    98    39    40 1   
    99    39   107 1   
   100    39   108 1   
   101    40    41 1   
   102    40   109 1   
   103    40   110 1   
   104    41    42 1   
   105    41   111 1   
   106    41   112 1   
   107    42    43 1   
   108    42   113 1   
   109    42   114 1   
   110    43    44 1   
   111    43   115 1   
   112    43   116 1   
   113    44    45 1   
   114    44   117 1   
   115    44   118 1   
   116    45    46 1   
   117    45   119 1   
   118    45   120 1   
   119    46   121 1   
   120    46   122 1   
   121    46   123 1   
   122    47    50 1   
   123    47   125 1   
   124    48    51 1   
   125    49    51 1   
@<TRIPOS>SUBSTRUCTURE
     1 D39         1 TEMP              0 ****  ****    0 ROOT
