@<TRIPOS>MOLECULE
D3A
   68    72     1     0     0
SMALL
No Charge or Current Charge


@<TRIPOS>ATOM
      1 C37         21.6590    -2.3320    51.9680 c3         1 D3A       0.148900
      2 O36         20.7780    -1.8110    52.9790 os         1 D3A      -0.356100
      3 C21         20.6330    -0.4630    53.3000 ca         1 D3A       0.075100
      4 C20         21.3850     0.5990    52.7010 ca         1 D3A       0.108100
      5 O34         22.3530     0.3330    51.7450 os         1 D3A      -0.341100
      6 C35         23.1360     1.3600    51.1090 c3         1 D3A       0.147900
      7 C19         21.1310     1.9340    53.0970 ca         1 D3A      -0.184000
      8 C18         20.1550     2.2210    54.0590 ca         1 D3A      -0.088000
      9 C17         19.4210     1.1850    54.6460 ca         1 D3A      -0.105000
     10 C8          19.6560    -0.1580    54.2830 ca         1 D3A      -0.061300
     11 C7          18.8300    -1.2870    54.9220 c3         1 D3A       0.273900
     12 C1          17.6300    -1.7450    54.0630 ca         1 D3A      -0.101300
     13 O6          18.4130    -0.8870    56.2550 os         1 D3A      -0.470000
     14 C5          17.4360    -1.7010    56.9440 c3         1 D3A       0.250600
     15 C4          17.6840    -3.1680    56.6580 cc         1 D3A      -0.178300
     16 C10         18.1270    -4.2060    57.4400 cd         1 D3A      -0.141000
     17 C11         18.1360    -5.3950    56.6680 cd         1 D3A      -0.178000
     18 C12         17.6990    -5.1190    55.3970 cc         1 D3A      -0.178000
     19 N3          17.4300    -3.7550    55.4260 na         1 D3A       0.104200
     20 C2          17.0270    -3.0050    54.3180 ca         1 D3A       0.021800
     21 C13         15.9830    -3.4700    53.4940 ca         1 D3A      -0.110000
     22 C14         15.5270    -2.6880    52.4200 ca         1 D3A      -0.085000
     23 C15         16.1090    -1.4370    52.1710 ca         1 D3A       0.114000
     24 C16         17.1530    -0.9660    52.9830 ca         1 D3A      -0.061000
     25 Cl1         15.5340    -0.4550    50.8300 cl         1 D3A      -0.216000
     26 C9          17.5260    -1.3220    58.4310 c3         1 D3A      -0.152400
     27 C22         16.4010    -1.8900    59.3070 c          1 D3A       0.602100
     28 O24         15.3730    -2.3280    58.8030 o          1 D3A      -0.626100
     29 N23         16.5780    -1.9170    60.7120 n          1 D3A      -0.400800
     30 C25         15.5760    -2.5360    61.6180 c6         1 D3A       0.093000
     31 C26         14.7990    -1.4590    62.4110 c6         1 D3A      -0.094900
     32 C27         15.7680    -0.5310    63.1980 c6         1 D3A      -0.041700
     33 C28         16.8370     0.0520    62.2310 c6         1 D3A      -0.094900
     34 C29         17.5590    -1.0670    61.4430 c6         1 D3A       0.093000
     35 C30         15.0290     0.6070    63.9730 c3         1 D3A      -0.196400
     36 C31         14.1150     0.0680    65.0920 c          1 D3A       0.705000
     37 O32         14.6150    -0.1620    66.1820 o          1 D3A      -0.740500
     38 O33         12.9370    -0.1310    64.8350 o          1 D3A      -0.740500
     39 H1          21.5530    -3.4220    51.9030 h1         1 D3A       0.038700
     40 H2          21.4180    -1.9130    50.9830 h1         1 D3A       0.038700
     41 H3          22.7070    -2.1140    52.2090 h1         1 D3A       0.038700
     42 H4          23.8340     0.9130    50.3900 h1         1 D3A       0.040367
     43 H5          22.4920     2.0610    50.5640 h1         1 D3A       0.040367
     44 H6          23.7240     1.9180    51.8490 h1         1 D3A       0.040367
     45 H7          21.6780     2.7670    52.6670 ha         1 D3A       0.114000
     46 H8          19.9650     3.2520    54.3500 ha         1 D3A       0.116000
     47 H9          18.6610     1.4320    55.3850 ha         1 D3A       0.140000
     48 H10         19.5030    -2.1500    55.0240 h1         1 D3A       0.070700
     49 H11         16.4300    -1.4450    56.5810 h1         1 D3A       0.080700
     50 H12         18.4190    -4.1330    58.4840 ha         1 D3A       0.138000
     51 H13         18.4430    -6.3740    57.0250 ha         1 D3A       0.130000
     52 H14         17.5750    -5.7400    54.5190 h4         1 D3A       0.144000
     53 H15         15.5120    -4.4290    53.6960 ha         1 D3A       0.132000
     54 H16         14.7190    -3.0470    51.7880 ha         1 D3A       0.130000
     55 H17         17.5870     0.0030    52.7570 ha         1 D3A       0.140000
     56 H18         18.4960    -1.6020    58.8540 hc         1 D3A       0.072200
     57 H19         17.5120    -0.2340    58.5600 hc         1 D3A       0.072200
     58 H20         14.8700    -3.1630    61.0560 h1         1 D3A       0.045700
     59 H21         16.0990    -3.1990    62.3230 h1         1 D3A       0.045700
     60 H22         14.1910    -0.8640    61.7150 hc         1 D3A       0.050450
     61 H23         14.1000    -1.9540    63.0960 hc         1 D3A       0.050450
     62 H24         16.2880    -1.1370    63.9550 hc         1 D3A       0.059700
     63 H25         17.5780     0.6360    62.7940 hc         1 D3A       0.050450
     64 H26         16.3630     0.7460    61.5240 hc         1 D3A       0.050450
     65 H27         18.1230    -1.7000    62.1430 h1         1 D3A       0.045700
     66 H28         18.2910    -0.6070    60.7680 h1         1 D3A       0.045700
     67 H29         15.8210     1.2140    64.4300 hc         1 D3A       0.021700
     68 H30         14.4350     1.1630    63.2380 hc         1 D3A       0.021700
@<TRIPOS>BOND
     1     1     2 1   
     2     1    39 1   
     3     1    40 1   
     4     1    41 1   
     5     2     3 1   
     6     3     4 ar  
     7     3    10 ar  
     8     4     5 1   
     9     4     7 ar  
    10     5     6 1   
    11     6    42 1   
    12     6    43 1   
    13     6    44 1   
    14     7     8 ar  
    15     7    45 1   
    16     8     9 ar  
    17     8    46 1   
    18     9    10 ar  
    19     9    47 1   
    20    10    11 1   
    21    11    12 1   
    22    11    13 1   
    23    11    48 1   
    24    12    20 ar  
    25    12    24 ar  
    26    13    14 1   
    27    14    15 1   
    28    14    26 1   
    29    14    49 1   
    30    15    16 2   
    31    15    19 1   
    32    16    17 1   
    33    16    50 1   
    34    17    18 2   
    35    17    51 1   
    36    18    19 1   
    37    18    52 1   
    38    19    20 1   
    39    20    21 ar  
    40    21    22 ar  
    41    21    53 1   
    42    22    23 ar  
    43    22    54 1   
    44    23    24 ar  
    45    23    25 1   
    46    24    55 1   
    47    26    27 1   
    48    26    56 1   
    49    26    57 1   
    50    27    28 2   
    51    27    29 1   
    52    29    30 1   
    53    29    34 1   
    54    30    31 1   
    55    30    58 1   
    56    30    59 1   
    57    31    32 1   
    58    31    60 1   
    59    31    61 1   
    60    32    33 1   
    61    32    35 1   
    62    32    62 1   
    63    33    34 1   
    64    33    63 1   
    65    33    64 1   
    66    34    65 1   
    67    34    66 1   
    68    35    36 1   
    69    35    67 1   
    70    35    68 1   
    71    36    37 1   
    72    36    38 1   
@<TRIPOS>SUBSTRUCTURE
     1 D3A         1 TEMP              0 ****  ****    0 ROOT
