@<TRIPOS>MOLECULE
D3A
   68    72     1     0     0
SMALL
abcg2


@<TRIPOS>ATOM
      1 C37         21.7980    -2.3120    53.3420 c3         1 D3A       0.148900
      2 O36         20.5930    -1.6870    52.8700 os         1 D3A      -0.356100
      3 C21         20.4310    -0.3790    53.2600 ca         1 D3A       0.075100
      4 C20         21.1440     0.6440    52.6070 ca         1 D3A       0.108100
      5 O34         22.0110     0.2440    51.6420 os         1 D3A      -0.341100
      6 C35         22.7530     1.2460    50.9470 c3         1 D3A       0.147900
      7 C19         20.9180     1.9700    52.9670 ca         1 D3A      -0.184000
      8 C18         19.9890     2.2690    53.9610 ca         1 D3A      -0.088000
      9 C17         19.2830     1.2610    54.5990 ca         1 D3A      -0.105000
     10 C8          19.5060    -0.0720    54.2540 ca         1 D3A      -0.061300
     11 C7          18.7330    -1.1990    54.8890 c3         1 D3A       0.273900
     12 C1          17.5340    -1.6450    54.0580 ca         1 D3A      -0.101300
     13 O6          18.3710    -0.8010    56.2140 os         1 D3A      -0.470000
     14 C5          17.4750    -1.7080    56.8950 c3         1 D3A       0.250600
     15 C4          17.7810    -3.1430    56.6150 cc         1 D3A      -0.178300
     16 C10         18.2730    -4.1650    57.3920 cd         1 D3A      -0.141000
     17 C11         18.2660    -5.3520    56.6020 cd         1 D3A      -0.178000
     18 C12         17.7700    -5.0230    55.3640 cc         1 D3A      -0.178000
     19 N3          17.4740    -3.6770    55.3720 na         1 D3A       0.104200
     20 C2          16.9770    -2.9100    54.2970 ca         1 D3A       0.021800
     21 C13         15.9420    -3.3940    53.5030 ca         1 D3A      -0.110000
     22 C14         15.4380    -2.6220    52.4670 ca         1 D3A      -0.085000
     23 C15         15.9700    -1.3580    52.2550 ca         1 D3A       0.114000
     24 C16         17.0060    -0.8670    53.0350 ca         1 D3A      -0.061000
     25 CL1         15.3290    -0.3600    50.9650 cl         1 D3A      -0.216000
     26 C9          17.5750    -1.3590    58.3690 c3         1 D3A      -0.152400
     27 C22         16.4300    -1.9410    59.1860 c          1 D3A       0.602100
     28 O24         15.4030    -2.3390    58.6260 o          1 D3A      -0.626100
     29 N23         16.5850    -1.9940    60.5270 n          1 D3A      -0.400800
     30 C25         15.5010    -2.4910    61.3740 c6         1 D3A       0.093000
     31 C26         14.8920    -1.3560    62.1930 c6         1 D3A      -0.094900
     32 C27         15.9560    -0.6220    63.0150 c6         1 D3A      -0.041700
     33 C28         17.1030    -0.1820    62.1020 c6         1 D3A      -0.094900
     34 C29         17.6570    -1.3490    61.2850 c6         1 D3A       0.093000
     35 C30         15.3620     0.5550    63.7880 c3         1 D3A      -0.196400
     36 C31         14.3180     0.1270    64.8360 c          1 D3A       0.705000
     37 O32         14.6980    -0.6980    65.7080 o          1 D3A      -0.740500
     38 O33         13.1660     0.6300    64.7520 o          1 D3A      -0.740500
     39 H1          21.7830    -3.3330    52.9650 h1         1 D3A       0.038700
     40 H2          22.6780    -1.7900    52.9670 h1         1 D3A       0.038700
     41 H3          21.8130    -2.3240    54.4350 h1         1 D3A       0.038700
     42 H4          23.3750     0.7120    50.2340 h1         1 D3A       0.040367
     43 H5          22.0860     1.9290    50.4160 h1         1 D3A       0.040367
     44 H6          23.3840     1.8140    51.6350 h1         1 D3A       0.040367
     45 H7          21.4530     2.7700    52.4750 ha         1 D3A       0.114000
     46 H8          19.8190     3.3030    54.2310 ha         1 D3A       0.116000
     47 H9          18.5600     1.4960    55.3670 ha         1 D3A       0.140000
     48 H10         19.3930    -2.0680    54.9590 h1         1 D3A       0.070700
     49 H11         16.4610    -1.4990    56.5450 h1         1 D3A       0.080700
     50 H12         18.5800    -4.0810    58.4210 ha         1 D3A       0.138000
     51 H13         18.5960    -6.3320    56.9080 ha         1 D3A       0.130000
     52 H14         17.6320    -5.6120    54.4740 h4         1 D3A       0.144000
     53 H15         15.5200    -4.3690    53.7070 ha         1 D3A       0.132000
     54 H16         14.6330    -2.9910    51.8480 ha         1 D3A       0.130000
     55 H17         17.4190     0.1100    52.8290 ha         1 D3A       0.140000
     56 H18         18.5420    -1.6830    58.7520 hc         1 D3A       0.072200
     57 H19         17.5470    -0.2700    58.4640 hc         1 D3A       0.072200
     58 H20         14.7610    -2.9660    60.7380 h1         1 D3A       0.045700
     59 H21         15.9210    -3.2490    62.0430 h1         1 D3A       0.045700
     60 H22         14.4040    -0.6480    61.5140 hc         1 D3A       0.050450
     61 H23         14.1190    -1.7640    62.8480 hc         1 D3A       0.050450
     62 H24         16.3630    -1.3310    63.7450 hc         1 D3A       0.059700
     63 H25         17.9120     0.2540    62.6950 hc         1 D3A       0.050450
     64 H26         16.7510     0.5930    61.4130 hc         1 D3A       0.050450
     65 H27         18.0920    -2.0980    61.9540 h1         1 D3A       0.045700
     66 H28         18.4420    -1.0080    60.6190 h1         1 D3A       0.045700
     67 H29         16.1680     1.0800    64.3140 hc         1 D3A       0.021700
     68 H30         14.9080     1.2630    63.0910 hc         1 D3A       0.021700
@<TRIPOS>BOND
     1     1     2 1   
     2     1    39 1   
     3     1    40 1   
     4     1    41 1   
     5     2     3 1   
     6     3     4 ar  
     7     3    10 ar  
     8     4     5 1   
     9     4     7 ar  
    10     5     6 1   
    11     6    42 1   
    12     6    43 1   
    13     6    44 1   
    14     7     8 ar  
    15     7    45 1   
    16     8     9 ar  
    17     8    46 1   
    18     9    10 ar  
    19     9    47 1   
    20    10    11 1   
    21    11    12 1   
    22    11    13 1   
    23    11    48 1   
    24    12    20 ar  
    25    12    24 ar  
    26    13    14 1   
    27    14    15 1   
    28    14    26 1   
    29    14    49 1   
    30    15    16 2   
    31    15    19 1   
    32    16    17 1   
    33    16    50 1   
    34    17    18 2   
    35    17    51 1   
    36    18    19 1   
    37    18    52 1   
    38    19    20 1   
    39    20    21 ar  
    40    21    22 ar  
    41    21    53 1   
    42    22    23 ar  
    43    22    54 1   
    44    23    24 ar  
    45    23    25 1   
    46    24    55 1   
    47    26    27 1   
    48    26    56 1   
    49    26    57 1   
    50    27    28 2   
    51    27    29 1   
    52    29    30 1   
    53    29    34 1   
    54    30    31 1   
    55    30    58 1   
    56    30    59 1   
    57    31    32 1   
    58    31    60 1   
    59    31    61 1   
    60    32    33 1   
    61    32    35 1   
    62    32    62 1   
    63    33    34 1   
    64    33    63 1   
    65    33    64 1   
    66    34    65 1   
    67    34    66 1   
    68    35    36 1   
    69    35    67 1   
    70    35    68 1   
    71    36    37 1   
    72    36    38 1   
@<TRIPOS>SUBSTRUCTURE
     1 D3A         1 TEMP              0 ****  ****    0 ROOT
