@<TRIPOS>MOLECULE
D3B
   40    41     1     0     0
SMALL
No Charge or Current Charge


@<TRIPOS>ATOM
      1 C3           3.3590     2.6220     0.0280 ca         1 D3B      -0.211000
      2 C4           4.1570     1.4680     0.0390 ca         1 D3B       0.008000
      3 C5           3.5490     0.1990     0.0450 ca         1 D3B      -0.293500
      4 C6           2.1430     0.0880     0.0450 ca         1 D3B       0.022000
      5 C7          -3.5750    -0.0180     0.0290 ca         1 D3B      -0.018000
      6 C8          -3.7060    -1.4080    -0.1940 ca         1 D3B      -0.104000
      7 N20         -2.3120     0.6420     0.0450 ns         1 D3B      -0.175000
      8 C22         -1.0070     0.1700     0.0510 c          1 D3B       0.663100
      9 O23         -0.6990    -1.0160     0.0770 o          1 D3B      -0.604100
     10 C1           1.3340     1.2490     0.0350 ca         1 D3B      -0.060000
     11 C2           1.9600     2.5150     0.0260 ca         1 D3B       0.148100
     12 C9          -4.9720    -2.0230    -0.2070 ca         1 D3B      -0.058300
     13 C10         -6.1210    -1.2430    -0.0030 ca         1 D3B      -0.120000
     14 C11         -6.0070     0.1390     0.2120 ca         1 D3B      -0.091000
     15 C12         -4.7420     0.7590     0.2290 ca         1 D3B      -0.114300
     16 O1           1.2060     3.6550     0.0150 oh         1 D3B      -0.540100
     17 S2           4.5630    -1.2810     0.0580 sy         1 D3B       1.130600
     18 O3           3.8150    -2.4300    -0.4460 o          1 D3B      -0.546500
     19 O4           5.9270    -0.9870    -0.3750 o          1 D3B      -0.546500
     20 N5           4.7240    -1.5980     1.6490 n8         1 D3B      -0.993100
     21 C13         -4.6560     2.2650     0.4660 c3         1 D3B      -0.044800
     22 C14         -5.0930    -3.5190    -0.4520 c3         1 D3B      -0.047800
     23 H1           3.8380     3.5980     0.0220 ha         1 D3B       0.120000
     24 H2           5.2430     1.5650     0.0430 ha         1 D3B       0.140000
     25 H3           1.6970    -0.9030     0.0550 ha         1 D3B       0.164000
     26 H4          -2.8350    -2.0310    -0.3720 ha         1 D3B       0.133000
     27 H5          -2.3850     1.6500     0.0500 hn         1 D3B       0.149000
     28 H6          -0.5130     2.1330     0.0180 hn         1 D3B       0.159000
     29 H7          -7.1060    -1.7050    -0.0150 ha         1 D3B       0.113000
     30 H8          -6.9080     0.7280     0.3660 ha         1 D3B       0.111000
     31 H9           1.8110     4.4270     0.0100 ho         1 D3B       0.478000
     32 H10          4.4620    -2.5810     1.6680 hn         1 D3B       0.471000
     33 H11          5.7370    -1.6460     1.7240 hn         1 D3B       0.471000
     34 H12         -4.2040     2.7750    -0.3930 hc         1 D3B       0.040033
     35 H13         -5.6460     2.7100     0.6250 hc         1 D3B       0.040033
     36 H14         -4.0520     2.4920     1.3520 hc         1 D3B       0.040033
     37 H15         -5.0970    -3.7390    -1.5260 hc         1 D3B       0.044700
     38 H16         -4.2570    -4.0660    -0.0010 hc         1 D3B       0.044700
     39 H17         -6.0190    -3.9230    -0.0250 hc         1 D3B       0.044700
     40 N24         -0.0930     1.2120     0.0340 ns         1 D3B      -0.165000
@<TRIPOS>BOND
     1     1     2 ar  
     2     1    11 ar  
     3     1    23 1   
     4     2     3 ar  
     5     2    24 1   
     6     3     4 ar  
     7     3    17 1   
     8     4    10 ar  
     9     4    25 1   
    10     5     6 ar  
    11     5     7 1   
    12     5    15 ar  
    13     6    12 ar  
    14     6    26 1   
    15     7     8 1   
    16     7    27 1   
    17     8     9 2   
    18     8    40 1   
    19    10    11 ar  
    20    10    40 1   
    21    11    16 1   
    22    12    13 ar  
    23    12    22 1   
    24    13    14 ar  
    25    13    29 1   
    26    14    15 ar  
    27    14    30 1   
    28    15    21 1   
    29    16    31 1   
    30    17    18 2   
    31    17    19 2   
    32    17    20 1   
    33    20    32 1   
    34    20    33 1   
    35    21    34 1   
    36    21    35 1   
    37    21    36 1   
    38    22    37 1   
    39    22    38 1   
    40    22    39 1   
    41    28    40 1   
@<TRIPOS>SUBSTRUCTURE
     1 D3B         1 TEMP              0 ****  ****    0 ROOT
