@<TRIPOS>MOLECULE
D3B
   40    41     1     0     0
SMALL
abcg2


@<TRIPOS>ATOM
      1 C3           3.3090     2.5340     0.2920 ca         1 D3B      -0.211000
      2 C4           4.0210     1.3470     0.3210 ca         1 D3B       0.008000
      3 C5           3.3530     0.1620     0.0690 ca         1 D3B      -0.293500
      4 C6           1.9920     0.1400    -0.2200 ca         1 D3B       0.022000
      5 C7          -3.4460     0.0730    -0.2000 ca         1 D3B      -0.018000
      6 C8          -3.4860    -1.3020    -0.4030 ca         1 D3B      -0.104000
      7 N20         -2.2920     0.8120    -0.5200 ns         1 D3B      -0.175000
      8 C22         -1.0270     0.4800    -0.1270 c          1 D3B       0.663100
      9 O23         -0.7590    -0.5190     0.5150 o          1 D3B      -0.604100
     10 C1           1.2740     1.3230    -0.2340 ca         1 D3B      -0.060000
     11 C2           1.9460     2.5330     0.0270 ca         1 D3B       0.148100
     12 C9          -4.6280    -2.0400    -0.1080 ca         1 D3B      -0.058300
     13 C10         -5.7410    -1.3650     0.3810 ca         1 D3B      -0.120000
     14 C11         -5.7070     0.0100     0.5630 ca         1 D3B      -0.091000
     15 C12         -4.5670     0.7560     0.2880 ca         1 D3B      -0.114300
     16 O1           1.2090     3.6500    -0.0080 oh         1 D3B      -0.540100
     17 S2           4.2350    -1.3640     0.0910 sy         1 D3B       1.130600
     18 O3           3.6900    -2.2680    -0.9130 o          1 D3B      -0.546500
     19 O4           5.6590    -1.0580     0.0350 o          1 D3B      -0.546500
     20 N5           3.7690    -1.9860     1.5500 n8         1 D3B      -0.993100
     21 C13         -4.5370     2.2380     0.5210 c3         1 D3B      -0.044800
     22 C14         -4.6640    -3.5210    -0.3560 c3         1 D3B      -0.047800
     23 H1           3.8170     3.4700     0.4900 ha         1 D3B       0.120000
     24 H2           5.0800     1.3640     0.5350 ha         1 D3B       0.140000
     25 H3           1.4980    -0.7920    -0.4460 ha         1 D3B       0.164000
     26 H4          -2.6200    -1.8070    -0.8100 ha         1 D3B       0.133000
     27 H5          -2.4400     1.7210    -0.9310 hn         1 D3B       0.149000
     28 H6          -0.4050     2.2420    -0.9690 hn         1 D3B       0.159000
     29 H7          -6.6430    -1.9140     0.6230 ha         1 D3B       0.113000
     30 H8          -6.5850     0.5160     0.9450 ha         1 D3B       0.111000
     31 H9           1.7570     4.4310     0.1320 ho         1 D3B       0.478000
     32 H10          3.9760    -2.9790     1.6110 hn         1 D3B       0.471000
     33 H11          4.1900    -1.4960     2.3330 hn         1 D3B       0.471000
     34 H12         -4.3970     2.8030    -0.4040 hc         1 D3B       0.040033
     35 H13         -5.4720     2.5780     0.9630 hc         1 D3B       0.040033
     36 H14         -3.7270     2.5230     1.1950 hc         1 D3B       0.040033
     37 H15         -4.8610    -3.7370    -1.4080 hc         1 D3B       0.044700
     38 H16         -3.7170    -3.9960    -0.1000 hc         1 D3B       0.044700
     39 H17         -5.4500    -4.0020     0.2260 hc         1 D3B       0.044700
     40 N24         -0.0860     1.3860    -0.5420 ns         1 D3B      -0.165000
@<TRIPOS>BOND
     1     1     2 ar  
     2     1    11 ar  
     3     1    23 1   
     4     2     3 ar  
     5     2    24 1   
     6     3     4 ar  
     7     3    17 1   
     8     4    10 ar  
     9     4    25 1   
    10     5     6 ar  
    11     5     7 1   
    12     5    15 ar  
    13     6    12 ar  
    14     6    26 1   
    15     7     8 1   
    16     7    27 1   
    17     8     9 2   
    18     8    40 1   
    19    10    11 ar  
    20    10    40 1   
    21    11    16 1   
    22    12    13 ar  
    23    12    22 1   
    24    13    14 ar  
    25    13    29 1   
    26    14    15 ar  
    27    14    30 1   
    28    15    21 1   
    29    16    31 1   
    30    17    18 2   
    31    17    19 2   
    32    17    20 1   
    33    20    32 1   
    34    20    33 1   
    35    21    34 1   
    36    21    35 1   
    37    21    36 1   
    38    22    37 1   
    39    22    38 1   
    40    22    39 1   
    41    28    40 1   
@<TRIPOS>SUBSTRUCTURE
     1 D3B         1 TEMP              0 ****  ****    0 ROOT
