@<TRIPOS>MOLECULE
D3C
   50    52     1     0     0
SMALL
No Charge or Current Charge


@<TRIPOS>ATOM
      1 FBB         -8.3120    -0.5860    -0.6310 f          1 D3C      -0.113333
      2 CBA         -8.1150     0.2410     0.4200 c3         1 D3C       0.388300
      3 FBC         -8.3300     1.5040    -0.0120 f          1 D3C      -0.113333
      4 FBD         -9.0760    -0.0370     1.3310 f          1 D3C      -0.113333
      5 CAX         -6.7280     0.0840     1.0020 cc         1 D3C      -0.303300
      6 CAY         -6.3510    -0.1810     2.2970 cd         1 D3C      -0.096000
      7 CAZ         -4.9440    -0.2440     2.3650 cd         1 D3C      -0.187000
      8 CAV         -4.4420    -0.0180     1.1150 cc         1 D3C      -0.151300
      9 CAU         -3.0050     0.0100     0.6660 c6         1 D3C       0.168300
     10 NAW         -5.5280     0.1880     0.2850 na         1 D3C       0.069000
     11 CAT         -5.3540     0.4570    -1.1440 c6         1 D3C       0.048600
     12 CAS         -4.0090     1.1920    -1.3820 c6         1 D3C       0.092000
     13 NAQ         -2.8100     0.5830    -0.7080 n          1 D3C      -0.435800
     14 CAP         -1.5240     0.7900    -1.2400 c          1 D3C       0.657100
     15 OAR         -1.3410     1.3860    -2.2890 o          1 D3C      -0.629100
     16 NAO         -0.4790     0.2760    -0.5120 ns         1 D3C      -0.512900
     17 CAN          0.9290     0.3890    -0.8970 c3         1 D3C       0.113000
     18 CAL          1.8660    -0.0820     0.2350 c3         1 D3C      -0.086400
     19 CAK          3.3690     0.0850    -0.0910 c3         1 D3C       0.170500
     20 NAM          3.7430    -0.7260    -1.2650 n8         1 D3C      -0.998200
     21 CAJ          4.2740    -0.2720     1.1150 c3         1 D3C      -0.068100
     22 CAD          5.7660    -0.0690     0.8410 ca         1 D3C      -0.113300
     23 CAC          6.6070    -1.1880     0.6520 ca         1 D3C      -0.113000
     24 CAB          7.9780    -1.0080     0.4040 ca         1 D3C       0.122000
     25 FAI          8.7710    -2.0890     0.2240 f          1 D3C      -0.154000
     26 CAA          8.5210     0.2900     0.3450 ca         1 D3C       0.163000
     27 FAH          9.8410     0.4680     0.1070 f          1 D3C      -0.151000
     28 CAF          7.6960     1.4080     0.5350 ca         1 D3C      -0.170000
     29 CAE          6.3260     1.2280     0.7830 ca         1 D3C       0.186000
     30 FAG          5.5460     2.3170     0.9710 f          1 D3C      -0.168000
     31 H1          -7.0280    -0.3220     3.1360 ha         1 D3C       0.147000
     32 H2          -4.3590    -0.4420     3.2590 ha         1 D3C       0.138000
     33 H3          -2.4150     0.6010     1.3810 h1         1 D3C       0.055200
     34 H4          -2.6040    -1.0130     0.6800 h1         1 D3C       0.055200
     35 H5          -5.3540    -0.5000    -1.6830 h1         1 D3C       0.078200
     36 H6          -6.1840     1.0670    -1.5210 h1         1 D3C       0.078200
     37 H7          -3.8400     1.2490    -2.4660 h1         1 D3C       0.072700
     38 H8          -4.1100     2.2270    -1.0230 h1         1 D3C       0.072700
     39 H9          -0.7090    -0.2180     0.3390 hn         1 D3C       0.301500
     40 H10          1.0970    -0.2140    -1.7990 h1         1 D3C       0.064200
     41 H11          1.1480     1.4380    -1.1390 h1         1 D3C       0.064200
     42 H12          1.6360     0.4970     1.1380 hc         1 D3C       0.041700
     43 H13          1.6540    -1.1330     0.4690 hc         1 D3C       0.041700
     44 H14          3.5450     1.1420    -0.3420 h1         1 D3C       0.069700
     45 H15          4.7590    -0.6610    -1.3910 hn         1 D3C       0.400000
     46 H16          3.5960    -1.7160    -1.0440 hn         1 D3C       0.400000
     47 H18          3.9760     0.3450     1.9720 hc         1 D3C       0.060700
     48 H19          4.0780    -1.3080     1.4170 hc         1 D3C       0.060700
     49 H20          6.2020    -2.1960     0.6970 ha         1 D3C       0.137000
     50 H21          8.1150     2.4090     0.4930 ha         1 D3C       0.157000
@<TRIPOS>BOND
     1     1     2 1   
     2     2     3 1   
     3     2     4 1   
     4     2     5 1   
     5     5     6 2   
     6     5    10 1   
     7     6     7 1   
     8     6    31 1   
     9     7     8 2   
    10     7    32 1   
    11     8     9 1   
    12     8    10 1   
    13     9    13 1   
    14     9    33 1   
    15     9    34 1   
    16    10    11 1   
    17    11    12 1   
    18    11    35 1   
    19    11    36 1   
    20    12    13 1   
    21    12    37 1   
    22    12    38 1   
    23    13    14 1   
    24    14    15 2   
    25    14    16 1   
    26    16    17 1   
    27    16    39 1   
    28    17    18 1   
    29    17    40 1   
    30    17    41 1   
    31    18    19 1   
    32    18    42 1   
    33    18    43 1   
    34    19    20 1   
    35    19    21 1   
    36    19    44 1   
    37    20    45 1   
    38    20    46 1   
    39    21    22 1   
    40    21    47 1   
    41    21    48 1   
    42    22    23 ar  
    43    22    29 ar  
    44    23    24 ar  
    45    23    49 1   
    46    24    25 1   
    47    24    26 ar  
    48    26    27 1   
    49    26    28 ar  
    50    28    29 ar  
    51    28    50 1   
    52    29    30 1   
@<TRIPOS>SUBSTRUCTURE
     1 D3C         1 TEMP              0 ****  ****    0 ROOT
