@<TRIPOS>MOLECULE
D3C
   50    52     1     0     0
SMALL
bcc


@<TRIPOS>ATOM
      1 FBB         -7.6630    -1.0720    -1.0980 f          1 D3C      -0.234633
      2 CBA         -7.7980    -0.3120     0.0040 c3         1 D3C       0.752200
      3 FBC         -8.2520     0.8790    -0.4310 f          1 D3C      -0.234633
      4 FBD         -8.7710    -0.8520     0.7410 f          1 D3C      -0.234633
      5 CAX         -6.5510    -0.2050     0.7830 cc         1 D3C      -0.252600
      6 CAY         -6.3500    -0.4820     2.1140 cd         1 D3C      -0.114000
      7 CAZ         -4.9960    -0.2150     2.3900 cd         1 D3C      -0.205000
      8 CAV         -4.4180     0.2150     1.2170 cc         1 D3C      -0.100600
      9 CAU         -3.0020     0.6270     0.9600 c6         1 D3C       0.168300
     10 NAW         -5.3660     0.2300     0.2480 na         1 D3C      -0.003100
     11 CAT         -5.0820     0.5860    -1.1330 c6         1 D3C       0.019300
     12 CAS         -3.8510     1.4640    -1.1670 c6         1 D3C       0.092000
     13 NAQ         -2.7650     0.8310    -0.4530 n          1 D3C      -0.502800
     14 CAP         -1.5210     0.7560    -1.0270 c          1 D3C       0.791100
     15 OAR         -1.3580     0.9110    -2.2330 o          1 D3C      -0.629100
     16 NAO         -0.4880     0.4650    -0.1970 ns         1 D3C      -0.579900
     17 CAN          0.8700     0.4240    -0.7040 c3         1 D3C       0.113000
     18 CAL          1.8270     0.0290     0.4080 c3         1 D3C      -0.086400
     19 CAK          3.2840     0.0470    -0.0420 c3         1 D3C       0.170500
     20 NAM          3.4800    -0.9030    -1.1230 n8         1 D3C      -0.887800
     21 CAJ          4.2060    -0.1760     1.1750 c3         1 D3C      -0.068100
     22 CAD          5.6580    -0.0960     0.8110 ca         1 D3C      -0.113300
     23 CAC          6.4080    -1.2410     0.5530 ca         1 D3C      -0.131000
     24 CAB          7.7300    -1.1550     0.1710 ca         1 D3C       0.086900
     25 FAI          8.4380    -2.2640    -0.0690 f          1 D3C      -0.118900
     26 CAA          8.3370     0.0790     0.0300 ca         1 D3C       0.127900
     27 FAH          9.6160     0.1440    -0.3460 f          1 D3C      -0.115900
     28 CAF          7.6290     1.2370     0.2760 ca         1 D3C      -0.188000
     29 CAE          6.3070     1.1220     0.6590 ca         1 D3C       0.150900
     30 FAG          5.6220     2.2520     0.8910 f          1 D3C      -0.132900
     31 H1          -7.0930    -0.8340     2.8120 ha         1 D3C       0.165000
     32 H2          -4.4930    -0.3270     3.3380 ha         1 D3C       0.156000
     33 H3          -2.7730     1.5300     1.5410 h1         1 D3C       0.055200
     34 H4          -2.3560    -0.1690     1.3340 h1         1 D3C       0.055200
     35 H5          -4.9260    -0.3170    -1.7250 h1         1 D3C       0.078200
     36 H6          -5.9210     1.1350    -1.5570 h1         1 D3C       0.078200
     37 H7          -3.5620     1.6310    -2.1990 h1         1 D3C       0.072700
     38 H8          -4.0790     2.4390    -0.7220 h1         1 D3C       0.072700
     39 H9          -0.5820     0.6500     0.7880 hn         1 D3C       0.301500
     40 H10          0.9330    -0.2940    -1.5200 h1         1 D3C       0.064200
     41 H11          1.1680     1.3980    -1.1090 h1         1 D3C       0.064200
     42 H12          1.7150     0.7210     1.2490 hc         1 D3C       0.041700
     43 H13          1.5710    -0.9680     0.7840 hc         1 D3C       0.041700
     44 H14          3.4980     1.0420    -0.4450 h1         1 D3C       0.069700
     45 H15          4.4230    -0.8410    -1.4860 hn         1 D3C       0.344800
     46 H16          3.3690    -1.8490    -0.7750 hn         1 D3C       0.344800
     47 H18          3.9680     0.5540     1.9520 hc         1 D3C       0.060700
     48 H19          3.9970    -1.1630     1.5980 hc         1 D3C       0.060700
     49 H20          5.9540    -2.2180     0.6630 ha         1 D3C       0.155000
     50 H21          8.0990     2.2060     0.1660 ha         1 D3C       0.175000
@<TRIPOS>BOND
     1     1     2 1   
     2     2     3 1   
     3     2     4 1   
     4     2     5 1   
     5     5     6 2   
     6     5    10 1   
     7     6     7 1   
     8     6    31 1   
     9     7     8 2   
    10     7    32 1   
    11     8     9 1   
    12     8    10 1   
    13     9    13 1   
    14     9    33 1   
    15     9    34 1   
    16    10    11 1   
    17    11    12 1   
    18    11    35 1   
    19    11    36 1   
    20    12    13 1   
    21    12    37 1   
    22    12    38 1   
    23    13    14 1   
    24    14    15 2   
    25    14    16 1   
    26    16    17 1   
    27    16    39 1   
    28    17    18 1   
    29    17    40 1   
    30    17    41 1   
    31    18    19 1   
    32    18    42 1   
    33    18    43 1   
    34    19    20 1   
    35    19    21 1   
    36    19    44 1   
    37    20    45 1   
    38    20    46 1   
    39    21    22 1   
    40    21    47 1   
    41    21    48 1   
    42    22    23 ar  
    43    22    29 ar  
    44    23    24 ar  
    45    23    49 1   
    46    24    25 1   
    47    24    26 ar  
    48    26    27 1   
    49    26    28 ar  
    50    28    29 ar  
    51    28    50 1   
    52    29    30 1   
@<TRIPOS>SUBSTRUCTURE
     1 D3C         1 TEMP              0 ****  ****    0 ROOT
