@<TRIPOS>MOLECULE
D3D
  127   126     1     0     0
SMALL
No Charge or Current Charge


@<TRIPOS>ATOM
      1 P            0.1440     5.5440    -1.2530 p5         1 D3D       1.394800
      2 C1         -14.6920    -6.9000     3.7970 c3         1 D3D      -0.075400
      3 C2         -14.0410    -5.5000     3.8430 c3         1 D3D      -0.075400
      4 C3         -13.0320    -5.2630     2.6970 c3         1 D3D      -0.074400
      5 C4         -12.3740    -3.8670     2.7540 c3         1 D3D      -0.074400
      6 C5         -11.3550    -3.6310     1.6170 c3         1 D3D      -0.074400
      7 C6         -10.6830    -2.2420     1.6890 c3         1 D3D      -0.074400
      8 C7          -9.6560    -2.0080     0.5590 c3         1 D3D      -0.074400
      9 C8          -8.9730    -0.6250     0.6400 c3         1 D3D      -0.074400
     10 C9          -7.9520    -0.3880    -0.4950 c3         1 D3D      -0.074400
     11 C10         -7.2720     0.9970    -0.4160 c3         1 D3D      -0.075400
     12 C11         -6.2750     1.2480    -1.5690 c3         1 D3D      -0.071400
     13 C12         -5.6170     2.6430    -1.5050 c3         1 D3D      -0.082400
     14 C13         -4.6740     2.9220    -2.6970 c3         1 D3D      -0.058400
     15 C14         -4.0320     4.3290    -2.6470 c3         1 D3D      -0.146400
     16 C15         -3.2630     4.6330    -3.9320 c          1 D3D       0.617100
     17 C16         -1.0980     4.6060    -4.9660 c3         1 D3D       0.174600
     18 C17          0.4100     4.4220    -4.6440 c3         1 D3D       0.153300
     19 C18          1.0910     5.5390    -3.7800 c3         1 D3D       0.224600
     20 C19         -0.1260     2.9910    -0.6670 c3         1 D3D       0.206600
     21 C20         -1.1770     1.8470    -0.7300 c3         1 D3D       0.155300
     22 C21         -0.5670     0.4740    -0.3410 c3         1 D3D       0.119600
     23 C23          2.0400     1.1970    -3.5770 c3         1 D3D      -0.142400
     24 C24          3.1710     1.1050    -2.5230 c3         1 D3D      -0.066400
     25 C25          3.3230    -0.3040    -1.9060 c3         1 D3D      -0.077400
     26 C26          4.6190    -0.4680    -1.0800 c3         1 D3D      -0.073400
     27 C27          4.7630    -1.8690    -0.4440 c3         1 D3D      -0.076400
     28 C28          6.1700    -2.1260     0.1470 c3         1 D3D      -0.071400
     29 C29          6.2970    -3.4990     0.8410 c3         1 D3D      -0.043200
     30 C30          7.7390    -3.8710     1.1210 c2         1 D3D      -0.212200
     31 C31          8.3370    -3.8470     2.3230 c2         1 D3D      -0.225200
     32 C32          9.7630    -4.2890     2.5840 c3         1 D3D      -0.038200
     33 C33         10.7340    -3.0980     2.7230 c3         1 D3D      -0.073400
     34 C34         12.2030    -3.5370     2.9130 c3         1 D3D      -0.074400
     35 O9           2.8300     3.0910    -4.8660 o          1 D3D      -0.515000
     36 C35         13.1890    -2.3510     3.0100 c3         1 D3D      -0.075400
     37 C36         14.6580    -2.8030     3.1680 c3         1 D3D      -0.074400
     38 C37         15.6530    -1.6240     3.2440 c3         1 D3D      -0.076400
     39 O8           0.6640     3.0970    -4.1090 os         1 D3D      -0.421100
     40 O2           1.2460     5.1990    -2.3820 os         1 D3D      -0.593400
     41 O4          -0.7030     6.7080    -1.6520 o          1 D3D      -0.819500
     42 O5          -0.6910     4.1700    -1.2520 os         1 D3D      -0.580400
     43 O7          -1.5880    -0.5400    -0.3390 oh         1 D3D      -0.651000
     44 O6          -2.2860     2.1090     0.1560 oh         1 D3D      -0.636000
     45 O3           0.7930     5.7820     0.0720 o          1 D3D      -0.819500
     46 O           -3.8040     5.0200    -4.9610 o          1 D3D      -0.512000
     47 C          -15.6950    -7.1350     4.9420 c3         1 D3D      -0.088100
     48 H4         -15.2090    -7.0290     2.8370 hc         1 D3D       0.036200
     49 H3         -13.9090    -7.6670     3.8450 hc         1 D3D       0.036200
     50 H5         -14.8270    -4.7350     3.7940 hc         1 D3D       0.036700
     51 H6         -13.5290    -5.3730     4.8050 hc         1 D3D       0.036700
     52 H7         -12.2500    -6.0320     2.7410 hc         1 D3D       0.036200
     53 H8         -13.5450    -5.3820     1.7330 hc         1 D3D       0.036200
     54 H10        -13.1550    -3.0970     2.7030 hc         1 D3D       0.036700
     55 H9         -11.8690    -3.7470     3.7210 hc         1 D3D       0.036700
     56 H12        -10.5820    -4.4080     1.6610 hc         1 D3D       0.036200
     57 H11        -11.8620    -3.7370     0.6500 hc         1 D3D       0.036200
     58 H13        -11.4560    -1.4640     1.6400 hc         1 D3D       0.036700
     59 H14        -10.1810    -2.1350     2.6600 hc         1 D3D       0.036700
     60 H15         -8.8880    -2.7920     0.6020 hc         1 D3D       0.035700
     61 H16        -10.1600    -2.1060    -0.4110 hc         1 D3D       0.035700
     62 H18         -9.7410     0.1580     0.6030 hc         1 D3D       0.037200
     63 H17         -8.4640    -0.5300     1.6080 hc         1 D3D       0.037200
     64 H19         -7.1830    -1.1700    -0.4590 hc         1 D3D       0.034200
     65 H20         -8.4620    -0.4840    -1.4620 hc         1 D3D       0.034200
     66 H22         -8.0430     1.7770    -0.4330 hc         1 D3D       0.039200
     67 H21         -6.7450     1.0870     0.5420 hc         1 D3D       0.039200
     68 H24         -5.4940     0.4780    -1.5470 hc         1 D3D       0.032700
     69 H23         -6.8020     1.1430    -2.5260 hc         1 D3D       0.032700
     70 H25         -6.4030     3.4090    -1.4840 hc         1 D3D       0.047200
     71 H26         -5.0550     2.7370    -0.5670 hc         1 D3D       0.047200
     72 H28         -3.8820     2.1630    -2.7240 hc         1 D3D       0.043200
     73 H27         -5.2450     2.8220    -3.6290 hc         1 D3D       0.043200
     74 H29         -4.8220     5.0790    -2.5290 hc         1 D3D       0.087200
     75 H30         -3.3450     4.3570    -1.7940 hc         1 D3D       0.087200
     76 H32         -1.2440     5.6170    -5.3700 h1         1 D3D       0.056700
     77 H31         -1.3770     3.8930    -5.7540 h1         1 D3D       0.056700
     78 H33          0.8850     4.4970    -5.6320 h1         1 D3D       0.050700
     79 H35          2.0860     5.7250    -4.2050 h1         1 D3D       0.032700
     80 H34          0.5320     6.4760    -3.9000 h1         1 D3D       0.032700
     81 H38          0.1620     3.1650     0.3800 h1         1 D3D       0.021700
     82 H37          0.7720     2.6850    -1.2200 h1         1 D3D       0.021700
     83 H39         -1.5290     1.7730    -1.7700 h1         1 D3D       0.087700
     84 H41          0.2210     0.2130    -1.0600 h1         1 D3D       0.015700
     85 H42         -0.1010     0.5490     0.6520 h1         1 D3D       0.015700
     86 H45          1.0830     0.9240    -3.1180 hc         1 D3D       0.072200
     87 H44          2.2600     0.4950    -4.3890 hc         1 D3D       0.072200
     88 H47          4.1170     1.3880    -3.0010 hc         1 D3D       0.050200
     89 H46          2.9900     1.8340    -1.7230 hc         1 D3D       0.050200
     90 H48          2.4540    -0.5200    -1.2720 hc         1 D3D       0.037200
     91 H49          3.3240    -1.0500    -2.7110 hc         1 D3D       0.037200
     92 H50          5.4800    -0.2820    -1.7350 hc         1 D3D       0.038200
     93 H51          4.6510     0.2920    -0.2880 hc         1 D3D       0.038200
     94 H52          4.0060    -1.9870     0.3410 hc         1 D3D       0.036700
     95 H53          4.5570    -2.6320    -1.2050 hc         1 D3D       0.036700
     96 H54          6.9070    -2.0650    -0.6640 hc         1 D3D       0.039700
     97 H55          6.4200    -1.3360     0.8660 hc         1 D3D       0.039700
     98 H56          5.7160    -3.4810     1.7710 hc         1 D3D       0.042700
     99 H57          5.8430    -4.2710     0.2070 hc         1 D3D       0.042700
    100 H58          8.2900    -4.2090     0.2400 ha         1 D3D       0.164000
    101 H59          7.7920    -3.5210     3.2110 ha         1 D3D       0.165000
    102 H60          9.8030    -4.9020     3.4940 hc         1 D3D       0.040700
    103 H61         10.1100    -4.9320     1.7650 hc         1 D3D       0.040700
    104 H63         10.6590    -2.4720     1.8240 hc         1 D3D       0.041700
    105 H62         10.4260    -2.4770     3.5730 hc         1 D3D       0.041700
    106 H64         12.2820    -4.1470     3.8220 hc         1 D3D       0.035200
    107 H65         12.4970    -4.1770     2.0720 hc         1 D3D       0.035200
    108 H66         13.0980    -1.7320     2.1080 hc         1 D3D       0.038700
    109 H67         12.9100    -1.7180     3.8620 hc         1 D3D       0.038700
    110 H69         14.7510    -3.4130     4.0750 hc         1 D3D       0.035700
    111 H68         14.9280    -3.4460     2.3210 hc         1 D3D       0.035700
    112 H36         15.5560    -1.0110     2.3390 hc         1 D3D       0.037700
    113 H71         15.3900    -0.9840     4.0950 hc         1 D3D       0.037700
    114 H43         -1.1480    -1.3920    -0.1200 ho         1 D3D       0.426000
    115 H40         -2.6800     1.2220     0.3170 ho         1 D3D       0.429000
    116 H          -16.5120    -6.4040     4.9000 hc         1 D3D       0.030033
    117 H1         -16.1290    -8.1400     4.8700 hc         1 D3D       0.030033
    118 H2         -15.1990    -7.0450     5.9170 hc         1 D3D       0.030033
    119 C38         17.1210    -2.0840     3.3880 c3         1 D3D      -0.074400
    120 C39         18.1180    -0.9110     3.4560 c3         1 D3D      -0.088100
    121 H70         17.2240    -2.6930     4.2950 hc         1 D3D       0.035700
    122 H73         17.3860    -2.7270     2.5400 hc         1 D3D       0.035700
    123 H74         18.0640    -0.3020     2.5460 hc         1 D3D       0.030700
    124 H75         17.9030    -0.2680     4.3180 hc         1 D3D       0.030700
    125 H76         19.1440    -1.2880     3.5560 hc         1 D3D       0.030700
    126 C22          1.9420     2.6010    -4.1810 c          1 D3D       0.599100
    127 O1          -1.9200     4.4050    -3.8050 os         1 D3D      -0.415100
@<TRIPOS>BOND
     1     1    40 1   
     2     1    41 1   
     3     1    42 1   
     4     1    45 1   
     5     2     3 1   
     6     2    47 1   
     7     2    48 1   
     8     2    49 1   
     9     3     4 1   
    10     3    50 1   
    11     3    51 1   
    12     4     5 1   
    13     4    52 1   
    14     4    53 1   
    15     5     6 1   
    16     5    54 1   
    17     5    55 1   
    18     6     7 1   
    19     6    56 1   
    20     6    57 1   
    21     7     8 1   
    22     7    58 1   
    23     7    59 1   
    24     8     9 1   
    25     8    60 1   
    26     8    61 1   
    27     9    10 1   
    28     9    62 1   
    29     9    63 1   
    30    10    11 1   
    31    10    64 1   
    32    10    65 1   
    33    11    12 1   
    34    11    66 1   
    35    11    67 1   
    36    12    13 1   
    37    12    68 1   
    38    12    69 1   
    39    13    14 1   
    40    13    70 1   
    41    13    71 1   
    42    14    15 1   
    43    14    72 1   
    44    14    73 1   
    45    15    16 1   
    46    15    74 1   
    47    15    75 1   
    48    16    46 2   
    49    16   127 1   
    50    17    18 1   
    51    17    76 1   
    52    17    77 1   
    53    17   127 1   
    54    18    19 1   
    55    18    39 1   
    56    18    78 1   
    57    19    40 1   
    58    19    79 1   
    59    19    80 1   
    60    20    21 1   
    61    20    42 1   
    62    20    81 1   
    63    20    82 1   
    64    21    22 1   
    65    21    44 1   
    66    21    83 1   
    67    22    43 1   
    68    22    84 1   
    69    22    85 1   
    70    23    24 1   
    71    23    86 1   
    72    23    87 1   
    73    23   126 1   
    74    24    25 1   
    75    24    88 1   
    76    24    89 1   
    77    25    26 1   
    78    25    90 1   
    79    25    91 1   
    80    26    27 1   
    81    26    92 1   
    82    26    93 1   
    83    27    28 1   
    84    27    94 1   
    85    27    95 1   
    86    28    29 1   
    87    28    96 1   
    88    28    97 1   
    89    29    30 1   
    90    29    98 1   
    91    29    99 1   
    92    30    31 2   
    93    30   100 1   
    94    31    32 1   
    95    31   101 1   
    96    32    33 1   
    97    32   102 1   
    98    32   103 1   
    99    33    34 1   
   100    33   104 1   
   101    33   105 1   
   102    34    36 1   
   103    34   106 1   
   104    34   107 1   
   105    35   126 2   
   106    36    37 1   
   107    36   108 1   
   108    36   109 1   
   109    37    38 1   
   110    37   110 1   
   111    37   111 1   
   112    38   112 1   
   113    38   113 1   
   114    38   119 1   
   115    39   126 1   
   116    43   114 1   
   117    44   115 1   
   118    47   116 1   
   119    47   117 1   
   120    47   118 1   
   121   119   120 1   
   122   119   121 1   
   123   119   122 1   
   124   120   123 1   
   125   120   124 1   
   126   120   125 1   
@<TRIPOS>SUBSTRUCTURE
     1 D3D         1 TEMP              0 ****  ****    0 ROOT
