@<TRIPOS>MOLECULE
D3D
  127   126     1     0     0
SMALL
bcc


@<TRIPOS>ATOM
      1 P           -1.5100     5.3880    -1.7640 p5         1 D3D       1.394800
      2 C1         -17.3970    -5.1680     3.0570 c3         1 D3D      -0.075400
      3 C2         -15.9890    -4.6520     3.3320 c3         1 D3D      -0.075400
      4 C3         -15.3200    -4.0430     2.1070 c3         1 D3D      -0.074400
      5 C4         -13.9120    -3.5270     2.3820 c3         1 D3D      -0.074400
      6 C5         -13.2430    -2.9250     1.1530 c3         1 D3D      -0.074400
      7 C6         -11.8320    -2.4150     1.4210 c3         1 D3D      -0.074400
      8 C7         -11.1660    -1.8210     0.1870 c3         1 D3D      -0.074400
      9 C8          -9.7480    -1.3240     0.4430 c3         1 D3D      -0.074400
     10 C9          -9.0870    -0.7400    -0.7990 c3         1 D3D      -0.074400
     11 C10         -7.6580    -0.2670    -0.5600 c3         1 D3D      -0.075400
     12 C11         -7.0030     0.3080    -1.8110 c3         1 D3D      -0.071400
     13 C12         -5.5610     0.7460    -1.5910 c3         1 D3D      -0.082400
     14 C13         -4.9160     1.3090    -2.8520 c3         1 D3D      -0.058400
     15 C14         -3.4780     1.7310    -2.6030 c3         1 D3D      -0.146400
     16 C15         -2.7880     2.3030    -3.8100 c          1 D3D       0.666100
     17 C16         -0.7040     3.0410    -4.6250 c3         1 D3D       0.151400
     18 C17          0.6400     3.4510    -4.0640 c3         1 D3D       0.130100
     19 C18          0.6180     4.6640    -3.1480 c3         1 D3D       0.201400
     20 C19         -1.9480     4.2810     0.6030 c3         1 D3D       0.183400
     21 C20         -2.6850     3.0990     1.2140 c3         1 D3D       0.132100
     22 C21         -2.2840     2.9460     2.6730 c3         1 D3D       0.096400
     23 C23          2.8550     0.9090    -2.5510 c3         1 D3D      -0.142400
     24 C24          4.3360     0.5700    -2.5520 c3         1 D3D      -0.066400
     25 C25          4.6320    -0.6350    -1.6680 c3         1 D3D      -0.077400
     26 C26          6.1090    -1.0060    -1.6310 c3         1 D3D      -0.073400
     27 C27          6.3980    -2.1840    -0.7090 c3         1 D3D      -0.076400
     28 C28          7.8760    -2.5440    -0.6300 c3         1 D3D      -0.071400
     29 C29          8.1500    -3.6990     0.3350 c3         1 D3D      -0.043200
     30 C30          9.6020    -4.0500     0.4170 c2         1 D3D      -0.162200
     31 C31         10.3550    -3.9210     1.5060 c2         1 D3D      -0.175200
     32 C32         11.8170    -4.2230     1.5960 c3         1 D3D      -0.038200
     33 C33         12.6480    -2.9750     1.8970 c3         1 D3D      -0.073400
     34 C34         14.1230    -3.2770     2.1240 c3         1 D3D      -0.074400
     35 O9           3.2920     2.8620    -3.8950 o          1 D3D      -0.564000
     36 C35         14.9500    -2.0300     2.4120 c3         1 D3D      -0.075400
     37 C36         16.4190    -2.3270     2.6850 c3         1 D3D      -0.074400
     38 C37         17.2410    -1.0770     2.9720 c3         1 D3D      -0.076400
     39 O8           1.1830     2.3090    -3.3920 os         1 D3D      -0.397900
     40 O2          -0.1670     4.4620    -1.9980 os         1 D3D      -0.570200
     41 O4          -2.3090     5.4650    -3.0260 o          1 D3D      -0.819500
     42 O5          -2.3090     4.3830    -0.7570 os         1 D3D      -0.557200
     43 O7          -2.8760     1.7800     3.1920 oh         1 D3D      -0.588800
     44 O6          -4.0810     3.1950     1.0510 oh         1 D3D      -0.573800
     45 O3          -1.1040     6.6330    -1.0320 o          1 D3D      -0.819500
     46 O           -3.3270     2.5810    -4.8540 o          1 D3D      -0.561000
     47 C          -18.0530    -5.7810     4.2860 c3         1 D3D      -0.088100
     48 H4         -18.0150    -4.3470     2.6790 hc         1 D3D       0.036200
     49 H3         -17.3580    -5.9110     2.2540 hc         1 D3D       0.036200
     50 H5         -16.0300    -3.9050     4.1330 hc         1 D3D       0.036700
     51 H6         -15.3720    -5.4730     3.7140 hc         1 D3D       0.036700
     52 H7         -15.2790    -4.7910     1.3070 hc         1 D3D       0.036200
     53 H8         -15.9380    -3.2240     1.7240 hc         1 D3D       0.036200
     54 H10        -13.9520    -2.7760     3.1790 hc         1 D3D       0.036700
     55 H9         -13.2950    -4.3460     2.7680 hc         1 D3D       0.036700
     56 H12        -13.2090    -3.6760     0.3560 hc         1 D3D       0.036200
     57 H11        -13.8590    -2.1040     0.7700 hc         1 D3D       0.036200
     58 H13        -11.8640    -1.6620     2.2160 hc         1 D3D       0.036700
     59 H14        -11.2170    -3.2360     1.8060 hc         1 D3D       0.036700
     60 H15        -11.1450    -2.5720    -0.6100 hc         1 D3D       0.035700
     61 H16        -11.7770    -0.9940    -0.1930 hc         1 D3D       0.035700
     62 H18         -9.7640    -0.5700     1.2370 hc         1 D3D       0.037200
     63 H17         -9.1380    -2.1520     0.8230 hc         1 D3D       0.037200
     64 H19         -9.0880    -1.4920    -1.5960 hc         1 D3D       0.034200
     65 H20         -9.6890     0.0970    -1.1710 hc         1 D3D       0.034200
     66 H22         -7.6510     0.4880     0.2340 hc         1 D3D       0.039200
     67 H21         -7.0570    -1.1040    -0.1890 hc         1 D3D       0.039200
     68 H24         -7.0340    -0.4420    -2.6100 hc         1 D3D       0.032700
     69 H23         -7.5920     1.1590    -2.1700 hc         1 D3D       0.032700
     70 H25         -5.5180     1.4970    -0.7950 hc         1 D3D       0.047200
     71 H26         -4.9740    -0.1070    -1.2330 hc         1 D3D       0.047200
     72 H28         -4.9550     0.5580    -3.6450 hc         1 D3D       0.043200
     73 H27         -5.5000     2.1630    -3.2060 hc         1 D3D       0.043200
     74 H29         -3.4320     2.4870    -1.8140 hc         1 D3D       0.087200
     75 H30         -2.8890     0.8860    -2.2320 hc         1 D3D       0.087200
     76 H32         -1.1910     3.9220    -5.0420 h1         1 D3D       0.056700
     77 H31         -0.5620     2.3170    -5.4320 h1         1 D3D       0.056700
     78 H33          1.2630     3.7200    -4.9230 h1         1 D3D       0.050700
     79 H35          1.6430     4.8970    -2.8430 h1         1 D3D       0.032700
     80 H34          0.2740     5.5110    -3.7510 h1         1 D3D       0.032700
     81 H38         -2.2060     5.2010     1.1420 h1         1 D3D       0.021700
     82 H37         -0.8710     4.1260     0.7270 h1         1 D3D       0.021700
     83 H39         -2.3880     2.1930     0.6740 h1         1 D3D       0.087700
     84 H41         -1.1890     2.9060     2.7350 h1         1 D3D       0.015700
     85 H42         -2.5990     3.8420     3.2280 h1         1 D3D       0.015700
     86 H45          2.5060     1.0800    -1.5260 hc         1 D3D       0.072200
     87 H44          2.2650     0.0650    -2.9210 hc         1 D3D       0.072200
     88 H47          4.6710     0.3670    -3.5730 hc         1 D3D       0.050200
     89 H46          4.9140     1.4290    -2.1990 hc         1 D3D       0.050200
     90 H48          4.2880    -0.4290    -0.6490 hc         1 D3D       0.037200
     91 H49          4.0510    -1.4970    -2.0150 hc         1 D3D       0.037200
     92 H50          6.4530    -1.2400    -2.6440 hc         1 D3D       0.038200
     93 H51          6.6930    -0.1380    -1.3040 hc         1 D3D       0.038200
     94 H52          6.0320    -1.9510     0.2970 hc         1 D3D       0.036700
     95 H53          5.8280    -3.0580    -1.0440 hc         1 D3D       0.036700
     96 H54          8.2460    -2.8050    -1.6280 hc         1 D3D       0.039700
     97 H55          8.4500    -1.6680    -0.3100 hc         1 D3D       0.039700
     98 H56          7.7770    -3.4350     1.3290 hc         1 D3D       0.042700
     99 H57          7.5780    -4.5740     0.0090 hc         1 D3D       0.042700
    100 H58         10.0610    -4.4180    -0.4990 ha         1 D3D       0.114000
    101 H59          9.8930    -3.5440     2.4180 ha         1 D3D       0.115000
    102 H60         11.9890    -4.9580     2.3900 hc         1 D3D       0.040700
    103 H61         12.1640    -4.6830     0.6650 hc         1 D3D       0.040700
    104 H63         12.5370    -2.2640     1.0720 hc         1 D3D       0.041700
    105 H62         12.2420    -2.4780     2.7850 hc         1 D3D       0.041700
    106 H64         14.2240    -3.9800     2.9580 hc         1 D3D       0.035200
    107 H65         14.5310    -3.7880     1.2450 hc         1 D3D       0.035200
    108 H66         14.8690    -1.3380     1.5670 hc         1 D3D       0.038700
    109 H67         14.5220    -1.5050     3.2740 hc         1 D3D       0.038700
    110 H69         16.4980    -3.0150     3.5340 hc         1 D3D       0.035700
    111 H68         16.8490    -2.8550     1.8260 hc         1 D3D       0.035700
    112 H36         17.1710    -0.3930     2.1180 hc         1 D3D       0.037700
    113 H71         16.8050    -0.5430     3.8230 hc         1 D3D       0.037700
    114 H43         -2.6460     1.7180     4.1230 ho         1 D3D       0.387000
    115 H40         -4.3920     3.9780     1.5180 ho         1 D3D       0.390000
    116 H          -18.1290    -5.0560     5.0980 hc         1 D3D       0.030033
    117 H1         -19.0600    -6.1400     4.0690 hc         1 D3D       0.030033
    118 H2         -17.4740    -6.6300     4.6560 hc         1 D3D       0.030033
    119 C38         18.7080    -1.3700     3.2630 c3         1 D3D      -0.074400
    120 C39         19.5180    -0.1130     3.5490 c3         1 D3D      -0.088100
    121 H70         18.7770    -2.0530     4.1150 hc         1 D3D       0.035700
    122 H73         19.1470    -1.9010     2.4130 hc         1 D3D       0.035700
    123 H74         19.4820     0.5780     2.7040 hc         1 D3D       0.030700
    124 H75         19.1320     0.4160     4.4220 hc         1 D3D       0.030700
    125 H76         20.5660    -0.3450     3.7400 hc         1 D3D       0.030700
    126 C22          2.5010     2.1290    -3.3560 c          1 D3D       0.648100
    127 O1          -1.4890     2.4560    -3.5950 os         1 D3D      -0.391900
@<TRIPOS>BOND
     1     1    40 1   
     2     1    41 1   
     3     1    42 1   
     4     1    45 1   
     5     2     3 1   
     6     2    47 1   
     7     2    48 1   
     8     2    49 1   
     9     3     4 1   
    10     3    50 1   
    11     3    51 1   
    12     4     5 1   
    13     4    52 1   
    14     4    53 1   
    15     5     6 1   
    16     5    54 1   
    17     5    55 1   
    18     6     7 1   
    19     6    56 1   
    20     6    57 1   
    21     7     8 1   
    22     7    58 1   
    23     7    59 1   
    24     8     9 1   
    25     8    60 1   
    26     8    61 1   
    27     9    10 1   
    28     9    62 1   
    29     9    63 1   
    30    10    11 1   
    31    10    64 1   
    32    10    65 1   
    33    11    12 1   
    34    11    66 1   
    35    11    67 1   
    36    12    13 1   
    37    12    68 1   
    38    12    69 1   
    39    13    14 1   
    40    13    70 1   
    41    13    71 1   
    42    14    15 1   
    43    14    72 1   
    44    14    73 1   
    45    15    16 1   
    46    15    74 1   
    47    15    75 1   
    48    16    46 2   
    49    16   127 1   
    50    17    18 1   
    51    17    76 1   
    52    17    77 1   
    53    17   127 1   
    54    18    19 1   
    55    18    39 1   
    56    18    78 1   
    57    19    40 1   
    58    19    79 1   
    59    19    80 1   
    60    20    21 1   
    61    20    42 1   
    62    20    81 1   
    63    20    82 1   
    64    21    22 1   
    65    21    44 1   
    66    21    83 1   
    67    22    43 1   
    68    22    84 1   
    69    22    85 1   
    70    23    24 1   
    71    23    86 1   
    72    23    87 1   
    73    23   126 1   
    74    24    25 1   
    75    24    88 1   
    76    24    89 1   
    77    25    26 1   
    78    25    90 1   
    79    25    91 1   
    80    26    27 1   
    81    26    92 1   
    82    26    93 1   
    83    27    28 1   
    84    27    94 1   
    85    27    95 1   
    86    28    29 1   
    87    28    96 1   
    88    28    97 1   
    89    29    30 1   
    90    29    98 1   
    91    29    99 1   
    92    30    31 2   
    93    30   100 1   
    94    31    32 1   
    95    31   101 1   
    96    32    33 1   
    97    32   102 1   
    98    32   103 1   
    99    33    34 1   
   100    33   104 1   
   101    33   105 1   
   102    34    36 1   
   103    34   106 1   
   104    34   107 1   
   105    35   126 2   
   106    36    37 1   
   107    36   108 1   
   108    36   109 1   
   109    37    38 1   
   110    37   110 1   
   111    37   111 1   
   112    38   112 1   
   113    38   113 1   
   114    38   119 1   
   115    39   126 1   
   116    43   114 1   
   117    44   115 1   
   118    47   116 1   
   119    47   117 1   
   120    47   118 1   
   121   119   120 1   
   122   119   121 1   
   123   119   122 1   
   124   120   123 1   
   125   120   124 1   
   126   120   125 1   
@<TRIPOS>SUBSTRUCTURE
     1 D3D         1 TEMP              0 ****  ****    0 ROOT
