@<TRIPOS>MOLECULE
D3E
   58    61     1     0     0
SMALL
abcg2


@<TRIPOS>ATOM
      1 F25         10.6510    40.5190    -1.0800 f          1 D3E      -0.108333
      2 C21         11.3610    40.4870    -2.2260 c3         1 D3E       0.300000
      3 F23         12.3380    39.5730    -2.0610 f          1 D3E      -0.108333
      4 F24         11.9660    41.6840    -2.3490 f          1 D3E      -0.108333
      5 C2          10.4630    40.1650    -3.4410 c3         1 D3E       0.177300
      6 C1           9.4220    41.2720    -3.6190 c3         1 D3E      -0.123100
      7 O22         11.3800    40.1710    -4.5270 oh         1 D3E      -0.642000
      8 C3           9.8340    38.7850    -3.2360 ca         1 D3E      -0.126300
      9 C8           8.6820    38.6200    -2.4660 ca         1 D3E      -0.087500
     10 C7           8.1590    37.3550    -2.2400 ca         1 D3E      -0.083000
     11 C6           8.7680    36.2310    -2.7920 ca         1 D3E      -0.120600
     12 C5           9.8930    36.3950    -3.5950 ca         1 D3E      -0.083000
     13 C4          10.4290    37.6590    -3.8020 ca         1 D3E      -0.087500
     14 C9           8.2080    34.8560    -2.5720 c          1 D3E       0.606700
     15 O11          7.8190    34.1980    -3.5380 o          1 D3E      -0.580100
     16 N10          8.1330    34.4140    -1.2850 n          1 D3E      -0.379800
     17 C12          7.5100    33.1340    -1.0520 cx         1 D3E       0.033700
     18 C14          6.0780    32.9320    -1.4350 cx         1 D3E      -0.124400
     19 C13          6.4600    32.9870     0.0170 cx         1 D3E      -0.124400
     20 C15          9.0230    34.9720    -0.2420 c6         1 D3E       0.113700
     21 C20          9.9890    33.9230     0.3120 c6         1 D3E      -0.085900
     22 C19         11.0100    34.5890     1.2350 c6         1 D3E      -0.070400
     23 C18         10.3340    35.3750     2.3720 c6         1 D3E      -0.014400
     24 C17          9.3150    36.3770     1.8040 c6         1 D3E      -0.070400
     25 C16          8.2960    35.6850     0.8980 c6         1 D3E      -0.085900
     26 C26         11.3470    36.0480     3.2620 ca         1 D3E      -0.129300
     27 C31         12.2130    37.0370     2.7930 ca         1 D3E      -0.069000
     28 C30         13.1240    37.6160     3.6640 ca         1 D3E      -0.161000
     29 C29         13.1490    37.1920     4.9870 ca         1 D3E       0.330900
     30 N28         12.3300    36.2480     5.4610 nb         1 D3E      -0.663000
     31 C27         11.4580    35.7010     4.6080 ca         1 D3E       0.334900
     32 H1           8.7870    41.3850    -2.7420 hc         1 D3E       0.061033
     33 H1A          9.9230    42.2180    -3.8160 hc         1 D3E       0.061033
     34 H1B          8.7900    41.0200    -4.4710 hc         1 D3E       0.061033
     35 HO22        10.8760    40.0940    -5.3480 ho         1 D3E       0.463000
     36 H8           8.1900    39.4730    -2.0220 ha         1 D3E       0.127000
     37 H7           7.2750    37.2430    -1.6260 ha         1 D3E       0.128000
     38 H5          10.3670    35.5280    -4.0390 ha         1 D3E       0.128000
     39 H4          11.3190    37.7710    -4.4040 ha         1 D3E       0.127000
     40 H12          8.1690    32.2860    -1.1950 h1         1 D3E       0.078700
     41 H14          5.5540    33.7880    -1.8380 hc         1 D3E       0.078450
     42 H14A         5.8090    31.9830    -1.8780 hc         1 D3E       0.078450
     43 H13          6.4720    32.0720     0.5940 hc         1 D3E       0.078450
     44 H13A         6.1670    33.8680     0.5660 hc         1 D3E       0.078450
     45 H15          9.6340    35.7190    -0.7460 h1         1 D3E       0.061700
     46 H20          9.4330    33.1600     0.8650 hc         1 D3E       0.050450
     47 H20A        10.5020    33.4220    -0.5130 hc         1 D3E       0.050450
     48 H19         11.6780    33.8360     1.6580 hc         1 D3E       0.048200
     49 H19A        11.6310    35.2740     0.6500 hc         1 D3E       0.048200
     50 H18          9.7810    34.6570     2.9870 hc         1 D3E       0.053700
     51 H17          8.8050    36.8850     2.6250 hc         1 D3E       0.048200
     52 H17A         9.8430    37.1450     1.2300 hc         1 D3E       0.048200
     53 H16          7.5930    36.4150     0.4940 hc         1 D3E       0.050450
     54 H16A         7.7220    34.9670     1.4850 hc         1 D3E       0.050450
     55 H31         12.1770    37.3520     1.7580 ha         1 D3E       0.121000
     56 H30         13.8070    38.3850     3.3270 ha         1 D3E       0.125000
     57 H29         13.8500    37.6260     5.6920 h4         1 D3E       0.020100
     58 H27         10.8030    34.9360     5.0160 h4         1 D3E       0.016100
@<TRIPOS>BOND
     1     1     2 1   
     2     2     3 1   
     3     2     4 1   
     4     2     5 1   
     5     5     6 1   
     6     5     7 1   
     7     5     8 1   
     8     6    32 1   
     9     6    33 1   
    10     6    34 1   
    11     7    35 1   
    12     8     9 ar  
    13     8    13 ar  
    14     9    10 ar  
    15     9    36 1   
    16    10    11 ar  
    17    10    37 1   
    18    11    12 ar  
    19    11    14 1   
    20    12    13 ar  
    21    12    38 1   
    22    13    39 1   
    23    14    15 2   
    24    14    16 1   
    25    16    17 1   
    26    16    20 1   
    27    17    18 1   
    28    17    19 1   
    29    17    40 1   
    30    18    19 1   
    31    18    41 1   
    32    18    42 1   
    33    19    43 1   
    34    19    44 1   
    35    20    21 1   
    36    20    25 1   
    37    20    45 1   
    38    21    22 1   
    39    21    46 1   
    40    21    47 1   
    41    22    23 1   
    42    22    48 1   
    43    22    49 1   
    44    23    24 1   
    45    23    26 1   
    46    23    50 1   
    47    24    25 1   
    48    24    51 1   
    49    24    52 1   
    50    25    53 1   
    51    25    54 1   
    52    26    27 ar  
    53    26    31 ar  
    54    27    28 ar  
    55    27    55 1   
    56    28    29 ar  
    57    28    56 1   
    58    29    30 ar  
    59    29    57 1   
    60    30    31 ar  
    61    31    58 1   
@<TRIPOS>SUBSTRUCTURE
     1 D3E         1 TEMP              0 ****  ****    0 ROOT
