@<TRIPOS>MOLECULE
D3E
   58    61     1     0     0
SMALL
No Charge or Current Charge


@<TRIPOS>ATOM
      1 F25         11.6470    40.5980    -2.1150 f          1 D3E      -0.108333
      2 C21         11.6460    40.6700    -3.4670 c3         1 D3E       0.300000
      3 F23         12.5820    39.8020    -3.9200 f          1 D3E      -0.108333
      4 F24         12.0530    41.9170    -3.8080 f          1 D3E      -0.108333
      5 C2          10.2170    40.3450    -4.0520 c3         1 D3E       0.177300
      6 C1           9.1870    41.4260    -3.6210 c3         1 D3E      -0.123100
      7 O22         10.2500    40.4100    -5.4880 oh         1 D3E      -0.642000
      8 C3           9.7840    38.9140    -3.6450 ca         1 D3E      -0.126300
      9 C8           8.9110    38.6720    -2.5580 ca         1 D3E      -0.087500
     10 C7           8.5510    37.3620    -2.1980 ca         1 D3E      -0.083000
     11 C6           9.0660    36.2510    -2.8990 ca         1 D3E      -0.120600
     12 C5           9.9240    36.4870    -3.9920 ca         1 D3E      -0.083000
     13 C4          10.2860    37.7960    -4.3520 ca         1 D3E      -0.087500
     14 C9           8.6840    34.8290    -2.5370 c          1 D3E       0.606700
     15 O11          8.6130    33.9650    -3.4040 o          1 D3E      -0.580100
     16 N10          8.3030    34.5520    -1.2010 n          1 D3E      -0.379800
     17 C12          7.4730    33.3770    -0.8950 cx         1 D3E       0.033700
     18 C14          6.1800    33.0860    -1.6250 cx         1 D3E      -0.124400
     19 C13          6.1490    33.4600    -0.1680 cx         1 D3E      -0.124400
     20 C15          9.1560    35.0600    -0.0780 c6         1 D3E       0.113700
     21 C20         10.2310    34.0270     0.3600 c6         1 D3E      -0.085900
     22 C19         11.1770    34.6320     1.4290 c6         1 D3E      -0.070400
     23 C18         10.3850    35.1400     2.6660 c6         1 D3E      -0.014400
     24 C17          9.2820    36.1440     2.2310 c6         1 D3E      -0.070400
     25 C16          8.3460    35.5240     1.1640 c6         1 D3E      -0.085900
     26 C26         11.3150    35.7400     3.7300 ca         1 D3E      -0.129300
     27 C31         12.1030    36.8760     3.4590 ca         1 D3E      -0.069000
     28 C30         12.9310    37.3730     4.4780 ca         1 D3E      -0.161000
     29 C29         12.9490    36.7280     5.7250 ca         1 D3E       0.330900
     30 N28         12.1980    35.6360     5.9980 nb         1 D3E      -0.663000
     31 C27         11.3990    35.1590     5.0140 ca         1 D3E       0.334900
     32 H1           9.1810    41.5660    -2.5340 hc         1 D3E       0.061033
     33 H1A          9.4270    42.3970    -4.0710 hc         1 D3E       0.061033
     34 H1B          8.1740    41.1520    -3.9400 hc         1 D3E       0.061033
     35 HO22         9.4070    40.0200    -5.8050 ho         1 D3E       0.463000
     36 H8           8.5010    39.4900    -1.9720 ha         1 D3E       0.127000
     37 H7           7.8560    37.2190    -1.3750 ha         1 D3E       0.128000
     38 H5          10.3270    35.6500    -4.5580 ha         1 D3E       0.128000
     39 H4          10.9690    37.9340    -5.1870 ha         1 D3E       0.127000
     40 H12          8.1250    32.5270    -0.6950 h1         1 D3E       0.078700
     41 H14          5.8220    33.8200    -2.3420 hc         1 D3E       0.078450
     42 H14A         5.9740    32.0520    -1.8900 hc         1 D3E       0.078450
     43 H13          5.9230    32.6810     0.5550 hc         1 D3E       0.078450
     44 H13A         5.7640    34.4450     0.0870 hc         1 D3E       0.078450
     45 H15          9.7130    35.9360    -0.4360 h1         1 D3E       0.061700
     46 H20          9.7560    33.1240     0.7670 hc         1 D3E       0.050450
     47 H20A        10.8180    33.7080    -0.5120 hc         1 D3E       0.050450
     48 H19         11.9100    33.8760     1.7420 hc         1 D3E       0.048200
     49 H19A        11.7520    35.4540     0.9820 hc         1 D3E       0.048200
     50 H18          9.8780    34.2700     3.1090 hc         1 D3E       0.053700
     51 H17          8.6920    36.4490     3.1070 hc         1 D3E       0.048200
     52 H17A         9.7360    37.0600     1.8290 hc         1 D3E       0.048200
     53 H16          7.5860    36.2590     0.8670 hc         1 D3E       0.050450
     54 H16A         7.8100    34.6780     1.6140 hc         1 D3E       0.050450
     55 H31         12.0760    37.3630     2.4860 ha         1 D3E       0.121000
     56 H30         13.5540    38.2470     4.3100 ha         1 D3E       0.125000
     57 H29         13.5840    37.0950     6.5310 h4         1 D3E       0.020100
     58 H27         10.8080    34.2790     5.2660 h4         1 D3E       0.016100
@<TRIPOS>BOND
     1     1     2 1   
     2     2     3 1   
     3     2     4 1   
     4     2     5 1   
     5     5     6 1   
     6     5     7 1   
     7     5     8 1   
     8     6    32 1   
     9     6    33 1   
    10     6    34 1   
    11     7    35 1   
    12     8     9 ar  
    13     8    13 ar  
    14     9    10 ar  
    15     9    36 1   
    16    10    11 ar  
    17    10    37 1   
    18    11    12 ar  
    19    11    14 1   
    20    12    13 ar  
    21    12    38 1   
    22    13    39 1   
    23    14    15 2   
    24    14    16 1   
    25    16    17 1   
    26    16    20 1   
    27    17    18 1   
    28    17    19 1   
    29    17    40 1   
    30    18    19 1   
    31    18    41 1   
    32    18    42 1   
    33    19    43 1   
    34    19    44 1   
    35    20    21 1   
    36    20    25 1   
    37    20    45 1   
    38    21    22 1   
    39    21    46 1   
    40    21    47 1   
    41    22    23 1   
    42    22    48 1   
    43    22    49 1   
    44    23    24 1   
    45    23    26 1   
    46    23    50 1   
    47    24    25 1   
    48    24    51 1   
    49    24    52 1   
    50    25    53 1   
    51    25    54 1   
    52    26    27 ar  
    53    26    31 ar  
    54    27    28 ar  
    55    27    55 1   
    56    28    29 ar  
    57    28    56 1   
    58    29    30 ar  
    59    29    57 1   
    60    30    31 ar  
    61    31    58 1   
@<TRIPOS>SUBSTRUCTURE
     1 D3E         1 TEMP              0 ****  ****    0 ROOT
