@<TRIPOS>MOLECULE
D3F
   35    36     1     0     0
SMALL
No Charge or Current Charge


@<TRIPOS>ATOM
      1 C1          -4.1310     1.2080    -0.4790 ca         1 D3F       0.177000
      2 C2          -3.1020     1.0600    -1.4190 ca         1 D3F      -0.113000
      3 C3          -2.0870     0.1130    -1.2230 ca         1 D3F       0.203000
      4 C4          -2.0960    -0.6960    -0.0660 ca         1 D3F      -0.257500
      5 C5          -3.1420    -0.5520     0.8750 ca         1 D3F       0.011000
      6 C6          -4.1600     0.4010     0.6770 ca         1 D3F      -0.074300
      7 C7          -5.2730     0.5480     1.7100 c3         1 D3F      -0.050800
      8 S1          -0.7960    -1.9170     0.2240 sy         1 D3F       1.016000
      9 O1          -0.8000    -2.8220    -0.9320 o          1 D3F      -0.486000
     10 O2          -0.9850    -2.4570     1.5760 o          1 D3F      -0.486000
     11 C8           0.7840    -0.9700     0.2190 ca         1 D3F      -0.127500
     12 C9           1.9490    -1.4830    -0.4340 ca         1 D3F      -0.080200
     13 C10          3.1130    -0.6920    -0.5410 ca         1 D3F      -0.022000
     14 C11          3.1640     0.6050     0.0010 ca         1 D3F      -0.152300
     15 C12          2.0450     1.0940     0.6970 ca         1 D3F      -0.022000
     16 C13          0.8690     0.3260     0.8220 ca         1 D3F      -0.080200
     17 N1          -0.2450     0.9290     1.6110 no         1 D3F       0.693200
     18 O3          -0.5860     0.3580     2.6520 o          1 D3F      -0.351000
     19 O4          -0.6330     2.0560     1.2820 o          1 D3F      -0.351000
     20 C14          4.4390     1.4500    -0.1170 c3         1 D3F       0.367300
     21 F1           5.2710     1.2290     0.9250 f          1 D3F      -0.098000
     22 F2           5.1350     1.1760    -1.2440 f          1 D3F      -0.098000
     23 F3           4.1770     2.7760    -0.1410 f          1 D3F      -0.098000
     24 N2           2.0210    -2.8670    -0.9890 no         1 D3F       0.693200
     25 O5           1.9170    -3.8030    -0.1860 o          1 D3F      -0.351000
     26 O6           2.4430    -2.9960    -2.1450 o          1 D3F      -0.351000
     27 Cl1         -0.8220     0.0000    -2.4470 cl         1 D3F      -0.151000
     28 Cl2         -5.3790     2.4190    -0.7740 cl         1 D3F      -0.170000
     29 H2          -3.0900     1.6860    -2.3060 ha         1 D3F       0.151000
     30 H5          -3.1670    -1.1740     1.7690 ha         1 D3F       0.152000
     31 H71         -5.2890     1.5610     2.1310 hc         1 D3F       0.057700
     32 H72         -6.2550     0.3540     1.2630 hc         1 D3F       0.057700
     33 H73         -5.1520    -0.1500     2.5470 hc         1 D3F       0.057700
     34 H10          3.9910    -1.1000    -1.0420 ha         1 D3F       0.167000
     35 H12          2.0870     2.0810     1.1590 ha         1 D3F       0.167000
@<TRIPOS>BOND
     1     1     2 ar  
     2     1     6 ar  
     3     1    28 1   
     4     2     3 ar  
     5     2    29 1   
     6     3     4 ar  
     7     3    27 1   
     8     4     5 ar  
     9     4     8 1   
    10     5     6 ar  
    11     5    30 1   
    12     6     7 1   
    13     7    31 1   
    14     7    32 1   
    15     7    33 1   
    16     8     9 2   
    17     8    10 2   
    18     8    11 1   
    19    11    12 ar  
    20    11    16 ar  
    21    12    13 ar  
    22    12    24 1   
    23    13    14 ar  
    24    13    34 1   
    25    14    15 ar  
    26    14    20 1   
    27    15    16 ar  
    28    15    35 1   
    29    16    17 1   
    30    17    18 1   
    31    17    19 1   
    32    20    21 1   
    33    20    22 1   
    34    20    23 1   
    35    24    25 1   
    36    24    26 1   
@<TRIPOS>SUBSTRUCTURE
     1 D3F         1 TEMP              0 ****  ****    0 ROOT
