@<TRIPOS>MOLECULE
D3F
   35    36     1     0     0
SMALL
bcc


@<TRIPOS>ATOM
      1 C1          -4.2860     0.9070    -0.7830 ca         1 D3F       0.085400
      2 C2          -3.2510     0.7310    -1.6860 ca         1 D3F      -0.131000
      3 C3          -2.1510    -0.0200    -1.3170 ca         1 D3F       0.111400
      4 C4          -2.0880    -0.5600    -0.0390 ca         1 D3F      -0.257500
      5 C5          -3.1370    -0.3710     0.8500 ca         1 D3F      -0.007000
      6 C6          -4.2620     0.3620     0.5010 ca         1 D3F      -0.074300
      7 C7          -5.3830     0.5540     1.4720 c3         1 D3F      -0.050800
      8 S1          -0.7800    -1.6350     0.4820 sy         1 D3F       1.157600
      9 O1          -0.7420    -2.7620    -0.4290 o          1 D3F      -0.556800
     10 O2          -0.9120    -1.8430     1.9140 o          1 D3F      -0.556800
     11 C8           0.7850    -0.7490     0.2890 ca         1 D3F      -0.127500
     12 C9           1.7810    -1.1970    -0.5670 ca         1 D3F      -0.080200
     13 C10          3.0000    -0.5540    -0.6840 ca         1 D3F      -0.040000
     14 C11          3.2710     0.5340     0.1220 ca         1 D3F      -0.152300
     15 C12          2.3380     0.9590     1.0540 ca         1 D3F      -0.040000
     16 C13          1.1200     0.3210     1.1140 ca         1 D3F      -0.080200
     17 N1           0.1790     0.8470     2.1020 no         1 D3F       0.313200
     18 O3           0.5280     0.8080     3.2510 o          1 D3F      -0.161000
     19 O4          -0.8490     1.3110     1.6830 o          1 D3F      -0.161000
     20 C14          4.6030     1.2310     0.0450 c3         1 D3F       0.731200
     21 F1           5.4040     0.8250     1.0310 f          1 D3F      -0.219300
     22 F2           5.2210     0.9850    -1.1070 f          1 D3F      -0.219300
     23 F3           4.4620     2.5510     0.1610 f          1 D3F      -0.219300
     24 N2           1.6720    -2.4140    -1.3820 no         1 D3F       0.313200
     25 O5           1.9410    -3.4440    -0.8260 o          1 D3F      -0.161000
     26 O6           1.4170    -2.2730    -2.5470 o          1 D3F      -0.161000
     27 CL1         -0.8780    -0.2390    -2.4470 cl         1 D3F      -0.059400
     28 CL2         -5.6460     1.8390    -1.2820 cl         1 D3F      -0.078400
     29 H2          -3.3010     1.1690    -2.6730 ha         1 D3F       0.169000
     30 H5          -3.0840    -0.7930     1.8440 ha         1 D3F       0.170000
     31 H71         -5.5700     1.6120     1.6580 hc         1 D3F       0.057700
     32 H72         -6.3110     0.1210     1.0950 hc         1 D3F       0.057700
     33 H73         -5.1520     0.0800     2.4240 hc         1 D3F       0.057700
     34 H10          3.7330    -0.9280    -1.3860 ha         1 D3F       0.185000
     35 H12          2.5410     1.7880     1.7190 ha         1 D3F       0.185000
@<TRIPOS>BOND
     1     1     2 ar  
     2     1     6 ar  
     3     1    28 1   
     4     2     3 ar  
     5     2    29 1   
     6     3     4 ar  
     7     3    27 1   
     8     4     5 ar  
     9     4     8 1   
    10     5     6 ar  
    11     5    30 1   
    12     6     7 1   
    13     7    31 1   
    14     7    32 1   
    15     7    33 1   
    16     8     9 2   
    17     8    10 2   
    18     8    11 1   
    19    11    12 ar  
    20    11    16 ar  
    21    12    13 ar  
    22    12    24 1   
    23    13    14 ar  
    24    13    34 1   
    25    14    15 ar  
    26    14    20 1   
    27    15    16 ar  
    28    15    35 1   
    29    16    17 1   
    30    17    18 1   
    31    17    19 1   
    32    20    21 1   
    33    20    22 1   
    34    20    23 1   
    35    24    25 1   
    36    24    26 1   
@<TRIPOS>SUBSTRUCTURE
     1 D3F         1 TEMP              0 ****  ****    0 ROOT
