@<TRIPOS>MOLECULE
D3G
   23    24     1     0     0
SMALL
abcg2


@<TRIPOS>ATOM
      1 C_1          1.4830    -1.1850     0.0680 ca         1 D3G      -0.055000
      2 C_2          2.8130    -1.5670     0.0170 ca         1 D3G      -0.165000
      3 C_3          3.7840    -0.5940    -0.1490 ca         1 D3G       0.337900
      4 N_1          3.4950     0.7000    -0.2600 nb         1 D3G      -0.665000
      5 C_4          2.2250     1.0620    -0.2100 ca         1 D3G       0.351900
      6 C_5          1.1630     0.1680    -0.0490 ca         1 D3G      -0.168500
      7 C_6         -0.2030     0.6530    -0.0120 cc         1 D3G       0.188500
      8 C_7         -0.7590     1.8830    -0.1860 cd         1 D3G      -0.162000
      9 C_8         -2.1660     1.7090    -0.0490 cd         1 D3G      -0.173000
     10 C_9         -2.3700     0.3920     0.2010 cc         1 D3G       0.147300
     11 O_1         -1.1810    -0.2500     0.2270 os         1 D3G      -0.244000
     12 C10         -3.5900    -0.4230     0.4400 c3         1 D3G       0.120500
     13 N_2         -3.7670    -1.4340    -0.5970 n8         1 D3G      -0.985200
     14 H_1          0.7120    -1.9330     0.1930 ha         1 D3G       0.129000
     15 H_2          3.0920    -2.6090     0.1020 ha         1 D3G       0.125000
     16 H_3          4.8330    -0.8640    -0.1940 h4         1 D3G       0.021100
     17 H_4          2.0290     2.1260    -0.3010 h4         1 D3G       0.021100
     18 H_7         -0.2390     2.8040    -0.3960 ha         1 D3G       0.143000
     19 H_8         -2.9280     2.4670    -0.1300 ha         1 D3G       0.143000
     20 H101        -4.4400     0.2590     0.4130 h1         1 D3G       0.046200
     21 H102        -3.5560    -0.8360     1.4570 h1         1 D3G       0.046200
     22 H_21        -3.0890    -2.1740    -0.4630 hn         1 D3G       0.398000
     23 H_22        -4.6710    -1.8710    -0.4690 hn         1 D3G       0.398000
@<TRIPOS>BOND
     1     1     2 ar  
     2     1     6 ar  
     3     1    14 1   
     4     2     3 ar  
     5     2    15 1   
     6     3     4 ar  
     7     3    16 1   
     8     4     5 ar  
     9     5     6 ar  
    10     5    17 1   
    11     6     7 1   
    12     7     8 2   
    13     7    11 1   
    14     8     9 1   
    15     8    18 1   
    16     9    10 2   
    17     9    19 1   
    18    10    11 1   
    19    10    12 1   
    20    12    13 1   
    21    12    20 1   
    22    12    21 1   
    23    13    22 1   
    24    13    23 1   
@<TRIPOS>SUBSTRUCTURE
     1 D3G         1 TEMP              0 ****  ****    0 ROOT
