@<TRIPOS>MOLECULE
D3G
   23    24     1     0     0
SMALL
No Charge or Current Charge


@<TRIPOS>ATOM
      1 C_1          1.6360    -1.1940     0.2270 ca         1 D3G      -0.055000
      2 C_2          3.0060    -1.4960     0.1770 ca         1 D3G      -0.165000
      3 C_3          3.9220    -0.4810    -0.1370 ca         1 D3G       0.337900
      4 N_1          3.5440     0.7910    -0.3980 nb         1 D3G      -0.665000
      5 C_4          2.2220     1.0820    -0.3490 ca         1 D3G       0.351900
      6 C_5          1.2260     0.1280    -0.0420 ca         1 D3G      -0.168500
      7 C_6         -0.1930     0.4870    -0.0010 cc         1 D3G       0.188500
      8 C_7         -0.7230     1.7280    -0.2310 cd         1 D3G      -0.162000
      9 C_8         -2.1200     1.5840    -0.0780 cd         1 D3G      -0.173000
     10 C_9         -2.3660     0.2710     0.2350 cc         1 D3G       0.147300
     11 O_1         -1.1770    -0.4270     0.2880 os         1 D3G      -0.244000
     12 C10         -3.6640    -0.4550     0.5130 c3         1 D3G       0.120500
     13 N_2         -4.2510    -1.0850    -0.6970 n8         1 D3G      -0.985200
     14 H_1          0.9130    -1.9710     0.4690 ha         1 D3G       0.129000
     15 H_2          3.3590    -2.5040     0.3780 ha         1 D3G       0.125000
     16 H_3          4.9900    -0.6900    -0.1820 h4         1 D3G       0.021100
     17 H_4          1.9650     2.1170    -0.5660 h4         1 D3G       0.021100
     18 H_7         -0.1910     2.6390    -0.4790 ha         1 D3G       0.143000
     19 H_8         -2.8680     2.3620    -0.1870 ha         1 D3G       0.143000
     20 H101        -4.3900     0.2570     0.9290 h1         1 D3G       0.046200
     21 H102        -3.4840    -1.2340     1.2670 h1         1 D3G       0.046200
     22 H_21        -3.6010    -1.7990    -1.0510 hn         1 D3G       0.398000
     23 H_22        -5.0830    -1.6270    -0.4280 hn         1 D3G       0.398000
@<TRIPOS>BOND
     1     1     2 ar  
     2     1     6 ar  
     3     1    14 1   
     4     2     3 ar  
     5     2    15 1   
     6     3     4 ar  
     7     3    16 1   
     8     4     5 ar  
     9     5     6 ar  
    10     5    17 1   
    11     6     7 1   
    12     7     8 2   
    13     7    11 1   
    14     8     9 1   
    15     8    18 1   
    16     9    10 2   
    17     9    19 1   
    18    10    11 1   
    19    10    12 1   
    20    12    13 1   
    21    12    20 1   
    22    12    21 1   
    23    13    22 1   
    24    13    23 1   
@<TRIPOS>SUBSTRUCTURE
     1 D3G         1 TEMP              0 ****  ****    0 ROOT
