@<TRIPOS>MOLECULE
D3H
   23    23     1     0     0
SMALL
abcg2


@<TRIPOS>ATOM
      1 C4           0.2700    -0.2820    -0.0670 ca         1 D3H      -0.062000
      2 C5           1.1770    -1.3400    -0.1200 ca         1 D3H      -0.108500
      3 C6           2.5420    -1.1210    -0.1260 ca         1 D3H      -0.148500
      4 C8          -3.4870    -0.5700     0.1480 c3         1 D3H       0.069800
      5 N1          -1.0970    -0.6060    -0.0780 ns         1 D3H      -0.147000
      6 N2          -4.6130     0.3330     0.0820 n8         1 D3H      -0.973200
      7 C3           0.7790     1.0150    -0.0160 ca         1 D3H      -0.108500
      8 C2           2.1500     1.2310    -0.0180 ca         1 D3H      -0.148500
      9 C1           3.0620     0.1760    -0.0740 ca         1 D3H       0.259000
     10 O1          -2.1110     1.3940     0.3110 o          1 D3H      -0.569100
     11 H1           0.8120    -2.3610    -0.1560 ha         1 D3H       0.126000
     12 H2           3.2140    -1.9700    -0.1700 ha         1 D3H       0.113500
     13 H3          -3.5210    -1.2450    -0.7110 h1         1 D3H       0.042200
     14 H4          -3.4700    -1.2180     1.0380 h1         1 D3H       0.042200
     15 H5          -1.2920    -1.5860    -0.2150 hn         1 D3H       0.144000
     16 H6          -5.4640    -0.2130     0.0540 hn         1 D3H       0.403500
     17 H7          -4.6630     0.8780     0.9330 hn         1 D3H       0.403500
     18 H9           0.1200     1.8670     0.0240 ha         1 D3H       0.126000
     19 H10          5.0000    -0.3570     0.1910 hn         1 D3H       0.441000
     20 H11          4.7300     1.2790     0.2610 hn         1 D3H       0.441000
     21 H12          2.5140     2.2510     0.0230 ha         1 D3H       0.113500
     22 N3           4.4260     0.4040    -0.1360 nv         1 D3H      -1.063000
     23 C7          -2.1710     0.1910     0.1270 c          1 D3H       0.604100
@<TRIPOS>BOND
     1     1     2 ar  
     2     1     5 1   
     3     1     7 ar  
     4     2     3 ar  
     5     2    11 1   
     6     3     9 ar  
     7     3    12 1   
     8     4     6 1   
     9     4    13 1   
    10     4    14 1   
    11     4    23 1   
    12     5    15 1   
    13     5    23 1   
    14     6    16 1   
    15     6    17 1   
    16     7     8 ar  
    17     7    18 1   
    18     8     9 ar  
    19     8    21 1   
    20     9    22 1   
    21    10    23 2   
    22    19    22 1   
    23    20    22 1   
@<TRIPOS>SUBSTRUCTURE
     1 D3H         1 TEMP              0 ****  ****    0 ROOT
