@<TRIPOS>MOLECULE
D3H
   23    23     1     0     0
SMALL
No Charge or Current Charge


@<TRIPOS>ATOM
      1 C4           0.3180    -0.2640     0.0120 ca         1 D3H      -0.062000
      2 C5           1.2070    -1.3490    -0.1260 ca         1 D3H      -0.108500
      3 C6           2.5970    -1.1360    -0.1670 ca         1 D3H      -0.148500
      4 C8          -3.5490    -0.5560     0.1610 c3         1 D3H       0.069800
      5 N1          -1.0750    -0.5560     0.0450 ns         1 D3H      -0.147000
      6 N2          -4.8200     0.2070    -0.1110 n8         1 D3H      -0.973200
      7 C3           0.8480     1.0430     0.1070 ca         1 D3H      -0.108500
      8 C2           2.2390     1.2490     0.0660 ca         1 D3H      -0.148500
      9 C1           3.1150     0.1620    -0.0700 ca         1 D3H       0.259000
     10 O1          -2.1690     1.4670     0.3340 o          1 D3H      -0.569100
     11 H1           0.8210    -2.3640    -0.2020 ha         1 D3H       0.126000
     12 H2           3.2670    -1.9850    -0.2740 ha         1 D3H       0.113500
     13 H3          -3.4520    -1.3390    -0.6040 h1         1 D3H       0.042200
     14 H4          -3.6430    -1.0590     1.1340 h1         1 D3H       0.042200
     15 H5          -1.2850    -1.5410    -0.0570 hn         1 D3H       0.144000
     16 H6          -5.6310    -0.4120     0.0200 hn         1 D3H       0.403500
     17 H7          -4.9450     0.9290     0.6120 hn         1 D3H       0.403500
     18 H9           0.2050     1.9110     0.2120 ha         1 D3H       0.126000
     19 H10          5.1080    -0.4240    -0.0870 hn         1 D3H       0.441000
     20 H11          4.8530     1.2930     0.0800 hn         1 D3H       0.441000
     21 H12          2.6330     2.2590     0.1390 ha         1 D3H       0.113500
     22 N3           4.4690     0.3690    -0.1090 nv         1 D3H      -1.063000
     23 C7          -2.2030     0.2470     0.1900 c          1 D3H       0.604100
@<TRIPOS>BOND
     1     1     2 ar  
     2     1     5 1   
     3     1     7 ar  
     4     2     3 ar  
     5     2    11 1   
     6     3     9 ar  
     7     3    12 1   
     8     4     6 1   
     9     4    13 1   
    10     4    14 1   
    11     4    23 1   
    12     5    15 1   
    13     5    23 1   
    14     6    16 1   
    15     6    17 1   
    16     7     8 ar  
    17     7    18 1   
    18     8     9 ar  
    19     8    21 1   
    20     9    22 1   
    21    10    23 2   
    22    19    22 1   
    23    20    22 1   
@<TRIPOS>SUBSTRUCTURE
     1 D3H         1 TEMP              0 ****  ****    0 ROOT
