@<TRIPOS>MOLECULE
D3J
   53    57     1     0     0
SMALL
No Charge or Current Charge


@<TRIPOS>ATOM
      1 C4          -0.5730     2.9640     1.3740 ca         1 D3J      -0.084500
      2 C14         -0.5670    -0.5170    -1.8340 c          1 D3J       0.602200
      3 C5          -0.3760     4.8170    -0.7360 ca         1 D3J      -0.130500
      4 C6          -1.6170     4.2230    -0.4360 ca         1 D3J      -0.084500
      5 C11         -2.5550    -0.8250     0.8190 ca         1 D3J       0.350300
      6 C7          -1.7150     3.2900     0.6120 ca         1 D3J       0.085100
      7 C9          -3.0850     1.4080     1.2220 ca         1 D3J       0.590300
      8 C12         -1.7370    -1.8630    -0.0230 c6         1 D3J       0.157400
      9 C3           0.6640     3.5640     1.0770 ca         1 D3J      -0.130500
     10 C2           0.7590     4.4840     0.0210 ca         1 D3J       0.182000
     11 O8          -2.9420     2.7360     0.9000 os         1 D3J      -0.367400
     12 N10         -2.4260     0.4860     0.4920 nb         1 D3J      -0.734000
     13 N13         -1.5420    -1.3910    -1.4140 ns         1 D3J      -0.472900
     14 C15          0.4980    -0.1970    -0.8320 ce         1 D3J      -0.261600
     15 S16          1.5870     1.1510    -1.2850 ss         1 D3J      -0.036600
     16 C17          3.1680     0.3360    -1.4800 ca         1 D3J      -0.098000
     17 C18          4.3130     0.8050    -0.8010 ca         1 D3J       0.128000
     18 C19          5.5450     0.1490    -0.9650 ca         1 D3J      -0.092000
     19 C20          5.6410    -0.9740    -1.8050 ca         1 D3J      -0.105000
     20 C21          4.5020    -1.4430    -2.4810 ca         1 D3J      -0.097000
     21 C22          3.2680    -0.7890    -2.3190 ca         1 D3J      -0.093000
     22 Cl23         4.2180     2.1970     0.2760 cl         1 D3J      -0.196000
     23 C24          0.5660    -0.8680     0.3310 c2         1 D3J       0.211900
     24 O25          1.4770    -0.6140     1.2810 oh         1 D3J      -0.514100
     25 C26         -0.3390    -2.0460     0.6310 c6         1 D3J      -0.048200
     26 C28         -2.4870    -3.1930    -0.1000 cc         1 D3J      -0.115300
     27 C29         -2.1170    -4.3880     0.4760 cd         1 D3J      -0.236000
     28 S30         -3.2970    -5.6710     0.1530 ss         1 D3J       0.225000
     29 C31         -4.2990    -4.5300    -0.7540 cd         1 D3J      -0.240000
     30 C32         -3.7300    -3.2850    -0.7870 cc         1 D3J      -0.121000
     31 C33         -3.3560    -1.2360     1.9080 ca         1 D3J      -0.183000
     32 C34         -4.0600    -0.2790     2.6550 ca         1 D3J      -0.049000
     33 C35         -3.9200     1.0680     2.2960 ca         1 D3J      -0.175000
     34 H1          -0.6440     2.2550     2.1960 ha         1 D3J       0.124500
     35 H2          -0.2950     5.5330    -1.5490 ha         1 D3J       0.137500
     36 H3          -2.5000     4.4810    -1.0150 ha         1 D3J       0.124500
     37 H4           1.5470     3.3190     1.6620 ha         1 D3J       0.137500
     38 H5          -2.2500    -1.6190    -2.0980 hn         1 D3J       0.317500
     39 H6           6.4250     0.5110    -0.4380 ha         1 D3J       0.129000
     40 H7           6.5960    -1.4800    -1.9300 ha         1 D3J       0.119000
     41 H8           4.5750    -2.3120    -3.1310 ha         1 D3J       0.116000
     42 H9           2.3910    -1.1560    -2.8470 ha         1 D3J       0.121000
     43 H10          2.0150     0.1340     0.9490 ho         1 D3J       0.498000
     44 H11         -0.4370    -2.2010     1.7140 hc         1 D3J       0.085200
     45 H12          0.1520    -2.9390     0.2250 hc         1 D3J       0.085200
     46 H13         -1.2430    -4.6150     1.0730 h4         1 D3J       0.151000
     47 H14         -5.2350    -4.8550    -1.1940 h4         1 D3J       0.156000
     48 H15         -4.1880    -2.4330    -1.2830 ha         1 D3J       0.144000
     49 H16         -3.4330    -2.2870     2.1730 ha         1 D3J       0.129000
     50 H17         -4.6900    -0.5740     3.4920 ha         1 D3J       0.123000
     51 H18         -4.4360     1.8480     2.8460 ha         1 D3J       0.142000
     52 F1           1.9480     5.0570    -0.2660 f          1 D3J      -0.177000
     53 O27         -0.5960    -0.0530    -2.9640 o          1 D3J      -0.529000
@<TRIPOS>BOND
     1     1     6 ar  
     2     1     9 ar  
     3     1    34 1   
     4     2    13 1   
     5     2    14 1   
     6     2    53 2   
     7     3     4 ar  
     8     3    10 ar  
     9     3    35 1   
    10     4     6 ar  
    11     4    36 1   
    12     5     8 1   
    13     5    12 ar  
    14     5    31 ar  
    15     6    11 1   
    16     7    11 1   
    17     7    12 ar  
    18     7    33 ar  
    19     8    13 1   
    20     8    25 1   
    21     8    26 1   
    22     9    10 ar  
    23     9    37 1   
    24    10    52 1   
    25    13    38 1   
    26    14    15 1   
    27    14    23 2   
    28    15    16 1   
    29    16    17 ar  
    30    16    21 ar  
    31    17    18 ar  
    32    17    22 1   
    33    18    19 ar  
    34    18    39 1   
    35    19    20 ar  
    36    19    40 1   
    37    20    21 ar  
    38    20    41 1   
    39    21    42 1   
    40    23    24 1   
    41    23    25 1   
    42    24    43 1   
    43    25    44 1   
    44    25    45 1   
    45    26    27 2   
    46    26    30 1   
    47    27    28 1   
    48    27    46 1   
    49    28    29 1   
    50    29    30 2   
    51    29    47 1   
    52    30    48 1   
    53    31    32 ar  
    54    31    49 1   
    55    32    33 ar  
    56    32    50 1   
    57    33    51 1   
@<TRIPOS>SUBSTRUCTURE
     1 D3J         1 TEMP              0 ****  ****    0 ROOT
