@<TRIPOS>MOLECULE
D3J
   53    57     1     0     0
SMALL
abcg2


@<TRIPOS>ATOM
      1 C4          -0.3540     3.0240     0.7100 ca         1 D3J      -0.084500
      2 C14          0.0760    -0.2750    -0.8780 c          1 D3J       0.602200
      3 C5          -1.3810     4.1160    -1.6340 ca         1 D3J      -0.130500
      4 C6          -2.2410     3.6050    -0.6700 ca         1 D3J      -0.084500
      5 C11         -2.2960    -0.8350     1.0640 ca         1 D3J       0.350300
      6 C7          -1.7220     3.0670     0.4950 ca         1 D3J       0.085100
      7 C9          -2.7170     1.3060     1.6930 ca         1 D3J       0.590300
      8 C12         -1.6270    -1.7840     0.0550 c6         1 D3J       0.157400
      9 C3           0.5090     3.5250    -0.2490 ca         1 D3J      -0.130500
     10 C2          -0.0210     4.0620    -1.4050 ca         1 D3J       0.182000
     11 O8          -2.5920     2.6330     1.4700 os         1 D3J      -0.367400
     12 N10         -2.1670     0.4660     0.8490 nb         1 D3J      -0.734000
     13 N13         -1.0280    -1.0590    -1.0480 ns         1 D3J      -0.472900
     14 C15          0.8880    -0.5770     0.3120 ce         1 D3J      -0.261600
     15 S16          2.1850     0.5130     0.7450 ss         1 D3J      -0.036600
     16 C17          3.4730     0.0980    -0.3930 ca         1 D3J      -0.098000
     17 C18          4.5700     0.9510    -0.4810 ca         1 D3J       0.128000
     18 C19          5.6260     0.6880    -1.3390 ca         1 D3J      -0.092000
     19 C20          5.5920    -0.4470    -2.1340 ca         1 D3J      -0.105000
     20 C21          4.5040    -1.3060    -2.0610 ca         1 D3J      -0.097000
     21 C22          3.4550    -1.0380    -1.1960 ca         1 D3J      -0.093000
     22 CL23         4.6200     2.3760     0.5070 cl         1 D3J      -0.196000
     23 C24          0.6310    -1.6610     1.0770 c2         1 D3J       0.211900
     24 O25          1.3550    -2.0460     2.1100 oh         1 D3J      -0.514100
     25 C26         -0.5140    -2.5620     0.7570 c6         1 D3J      -0.048200
     26 C28         -2.6920    -2.7000    -0.4980 cc         1 D3J      -0.115300
     27 C29         -2.6900    -4.0610    -0.4400 cd         1 D3J      -0.236000
     28 S30         -4.0820    -4.7330    -1.1770 ss         1 D3J       0.225000
     29 C31         -4.6900    -3.1820    -1.5770 cd         1 D3J      -0.240000
     30 C32         -3.8570    -2.1960    -1.1530 cc         1 D3J      -0.121000
     31 C33         -3.0020    -1.3430     2.1420 ca         1 D3J      -0.183000
     32 C34         -3.5810    -0.4420     3.0270 ca         1 D3J      -0.049000
     33 C35         -3.4440     0.9160     2.8140 ca         1 D3J      -0.175000
     34 H1           0.0430     2.5970     1.6210 ha         1 D3J       0.124500
     35 H2          -1.7700     4.5420    -2.5490 ha         1 D3J       0.137500
     36 H3          -3.3110     3.6330    -0.8300 ha         1 D3J       0.124500
     37 H4           1.5790     3.4780    -0.1000 ha         1 D3J       0.137500
     38 H5          -1.6550    -0.7380    -1.7720 hn         1 D3J       0.317500
     39 H6           6.4650     1.3690    -1.3840 ha         1 D3J       0.129000
     40 H7           6.4130    -0.6540    -2.8070 ha         1 D3J       0.119000
     41 H8           4.4700    -2.1950    -2.6770 ha         1 D3J       0.116000
     42 H9           2.6160    -1.7190    -1.1420 ha         1 D3J       0.121000
     43 H10          2.1030    -1.4350     2.2330 ho         1 D3J       0.498000
     44 H11         -0.8820    -3.0370     1.6670 hc         1 D3J       0.085200
     45 H12         -0.1430    -3.3610     0.1050 hc         1 D3J       0.085200
     46 H13         -1.9510    -4.7140    -0.0020 h4         1 D3J       0.151000
     47 H14         -5.6300    -3.0770    -2.0970 h4         1 D3J       0.156000
     48 H15         -4.0680    -1.1440    -1.2950 ha         1 D3J       0.144000
     49 H16         -3.1110    -2.4090     2.2910 ha         1 D3J       0.129000
     50 H17         -4.1370    -0.8010     3.8830 ha         1 D3J       0.123000
     51 H18         -3.8780     1.6460     3.4840 ha         1 D3J       0.142000
     52 F1           0.8170     4.5470    -2.3380 f          1 D3J      -0.177000
     53 O27          0.4140     0.5580    -1.6980 o          1 D3J      -0.529000
@<TRIPOS>BOND
     1     1     6 ar  
     2     1     9 ar  
     3     1    34 1   
     4     2    13 1   
     5     2    14 1   
     6     2    53 2   
     7     3     4 ar  
     8     3    10 ar  
     9     3    35 1   
    10     4     6 ar  
    11     4    36 1   
    12     5     8 1   
    13     5    12 ar  
    14     5    31 ar  
    15     6    11 1   
    16     7    11 1   
    17     7    12 ar  
    18     7    33 ar  
    19     8    13 1   
    20     8    25 1   
    21     8    26 1   
    22     9    10 ar  
    23     9    37 1   
    24    10    52 1   
    25    13    38 1   
    26    14    15 1   
    27    14    23 2   
    28    15    16 1   
    29    16    17 ar  
    30    16    21 ar  
    31    17    18 ar  
    32    17    22 1   
    33    18    19 ar  
    34    18    39 1   
    35    19    20 ar  
    36    19    40 1   
    37    20    21 ar  
    38    20    41 1   
    39    21    42 1   
    40    23    24 1   
    41    23    25 1   
    42    24    43 1   
    43    25    44 1   
    44    25    45 1   
    45    26    27 2   
    46    26    30 1   
    47    27    28 1   
    48    27    46 1   
    49    28    29 1   
    50    29    30 2   
    51    29    47 1   
    52    30    48 1   
    53    31    32 ar  
    54    31    49 1   
    55    32    33 ar  
    56    32    50 1   
    57    33    51 1   
@<TRIPOS>SUBSTRUCTURE
     1 D3J         1 TEMP              0 ****  ****    0 ROOT
