@<TRIPOS>MOLECULE
D3K
   48    50     1     0     0
SMALL
No Charge or Current Charge


@<TRIPOS>ATOM
      1 C14         -0.8440     0.0900    -2.1410 ca         1 D3K      -0.095000
      2 C10         -0.7900    -1.2870     2.2070 ca         1 D3K      -0.075000
      3 C13         -1.3840     0.0200    -0.8390 ca         1 D3K      -0.049300
      4 C11         -0.0450    -0.7460     1.1330 ca         1 D3K      -0.101300
      5 C12         -0.5560     0.4890     0.3630 c3         1 D3K       0.039900
      6 C01          4.5560     1.4300    -2.6880 c3         1 D3K       0.143900
      7 C03          3.5640    -0.6780    -2.0500 c3         1 D3K       0.154600
      8 C04          3.0850    -1.4740    -0.8150 c3         1 D3K       0.166600
      9 C06          1.1650    -1.3790     0.7510 ca         1 D3K       0.153100
     10 C07          1.6200    -2.5150     1.4590 ca         1 D3K      -0.202000
     11 C08          0.8760    -3.0280     2.5330 ca         1 D3K      -0.071000
     12 C09         -0.3290    -2.4160     2.9020 ca         1 D3K      -0.150000
     13 C15         -1.5890    -0.3530    -3.2480 ca         1 D3K      -0.115000
     14 C16         -2.8800    -0.8740    -3.0640 ca         1 D3K      -0.113000
     15 C17         -3.4240    -0.9540    -1.7720 ca         1 D3K      -0.115000
     16 C18         -2.6800    -0.5120    -0.6650 ca         1 D3K      -0.095000
     17 C19         -1.2900     1.5500     1.2440 c5         1 D3K       0.153500
     18 C21         -2.0780     3.7220     1.5770 c5         1 D3K       0.134800
     19 C22         -1.3000     3.3230     2.8660 c5         1 D3K      -0.111400
     20 C23         -0.4440     2.1060     2.4150 c5         1 D3K      -0.113400
     21 N20         -1.5910     2.8050     0.5210 n7         1 D3K      -0.823400
     22 O02          4.0520     0.6090    -1.6230 os         1 D3K      -0.442000
     23 O05          1.8720    -0.8710    -0.3230 os         1 D3K      -0.337100
     24 H1           0.1570     0.4860    -2.2970 ha         1 D3K       0.110500
     25 H2          -1.7340    -0.8430     2.5100 ha         1 D3K       0.114000
     26 H3           0.3210     1.0180    -0.0280 hc         1 D3K       0.070700
     27 H4           4.9080     2.3920    -2.2940 h1         1 D3K       0.029033
     28 H5           5.3980     0.9390    -3.1940 h1         1 D3K       0.029033
     29 H6           3.7720     1.6310    -3.4300 h1         1 D3K       0.029033
     30 H7           4.3670    -1.2380    -2.5450 h1         1 D3K       0.034200
     31 H8           2.7350    -0.5700    -2.7610 h1         1 D3K       0.034200
     32 H9           2.8980    -2.5130    -1.1160 h1         1 D3K       0.042200
     33 H10          3.8690    -1.4690    -0.0470 h1         1 D3K       0.042200
     34 H11          2.5460    -3.0150     1.1910 ha         1 D3K       0.115000
     35 H12          1.2310    -3.9030     3.0740 ha         1 D3K       0.110000
     36 H13         -0.9100    -2.8190     3.7290 ha         1 D3K       0.114000
     37 H14         -1.1640    -0.2930    -4.2470 ha         1 D3K       0.106500
     38 H15         -3.4560    -1.2170    -3.9210 ha         1 D3K       0.107000
     39 H16         -4.4220    -1.3620    -1.6280 ha         1 D3K       0.106500
     40 H17         -3.1120    -0.5890     0.3290 ha         1 D3K       0.110500
     41 H18         -2.2240     1.1110     1.6250 h1         1 D3K       0.065700
     42 H19         -3.1580     3.5850     1.7310 h1         1 D3K       0.050200
     43 H20         -1.9150     4.7740     1.3010 h1         1 D3K       0.050200
     44 H21         -0.6770     4.1410     3.2440 hc         1 D3K       0.044700
     45 H22         -1.9950     3.0480     3.6680 hc         1 D3K       0.044700
     46 H23         -0.3010     1.3780     3.2210 hc         1 D3K       0.051200
     47 H24          0.5520     2.4210     2.0790 hc         1 D3K       0.051200
     48 H25         -0.7060     3.1740     0.1580 hn         1 D3K       0.398000
@<TRIPOS>BOND
     1     1     3 ar  
     2     1    13 ar  
     3     1    24 1   
     4     2     4 ar  
     5     2    12 ar  
     6     2    25 1   
     7     3     5 1   
     8     3    16 ar  
     9     4     5 1   
    10     4     9 ar  
    11     5    17 1   
    12     5    26 1   
    13     6    22 1   
    14     6    27 1   
    15     6    28 1   
    16     6    29 1   
    17     7     8 1   
    18     7    22 1   
    19     7    30 1   
    20     7    31 1   
    21     8    23 1   
    22     8    32 1   
    23     8    33 1   
    24     9    10 ar  
    25     9    23 1   
    26    10    11 ar  
    27    10    34 1   
    28    11    12 ar  
    29    11    35 1   
    30    12    36 1   
    31    13    14 ar  
    32    13    37 1   
    33    14    15 ar  
    34    14    38 1   
    35    15    16 ar  
    36    15    39 1   
    37    16    40 1   
    38    17    20 1   
    39    17    21 1   
    40    17    41 1   
    41    18    19 1   
    42    18    21 1   
    43    18    42 1   
    44    18    43 1   
    45    19    20 1   
    46    19    44 1   
    47    19    45 1   
    48    20    46 1   
    49    20    47 1   
    50    21    48 1   
@<TRIPOS>SUBSTRUCTURE
     1 D3K         1 TEMP              0 ****  ****    0 ROOT
