@<TRIPOS>MOLECULE
D3K
   48    50     1     0     0
SMALL
abcg2


@<TRIPOS>ATOM
      1 C14         -0.5320     0.5120    -2.0050 ca         1 D3K      -0.095000
      2 C10         -0.7050    -1.2330     2.3570 ca         1 D3K      -0.075000
      3 C13         -1.0790     0.1250    -0.7870 ca         1 D3K      -0.049300
      4 C11          0.0080    -0.7100     1.2890 ca         1 D3K      -0.101300
      5 C12         -0.4210     0.5210     0.5200 c3         1 D3K       0.039900
      6 C01          3.9210     1.2080    -2.9750 c3         1 D3K       0.143900
      7 C03          3.2370    -0.8250    -2.0600 c3         1 D3K       0.154600
      8 C04          2.9040    -1.5140    -0.7620 c3         1 D3K       0.166600
      9 C06          1.1650    -1.3890     0.8700 ca         1 D3K       0.153100
     10 C07          1.5970    -2.5300     1.5380 ca         1 D3K      -0.202000
     11 C08          0.8650    -3.0220     2.6130 ca         1 D3K      -0.071000
     12 C09         -0.2910    -2.3820     3.0220 ca         1 D3K      -0.150000
     13 C15         -1.1330     0.1500    -3.2030 ca         1 D3K      -0.115000
     14 C16         -2.2940    -0.6090    -3.1990 ca         1 D3K      -0.113000
     15 C17         -2.8460    -1.0070    -1.9880 ca         1 D3K      -0.115000
     16 C18         -2.2400    -0.6450    -0.7940 ca         1 D3K      -0.095000
     17 C19         -1.2970     1.4810     1.3230 c5         1 D3K       0.153500
     18 C21         -2.0850     3.6540     1.5020 c5         1 D3K       0.134800
     19 C22         -1.3560     3.3670     2.8360 c5         1 D3K      -0.111400
     20 C23         -0.6360     2.0330     2.5950 c5         1 D3K      -0.113400
     21 N20         -1.6390     2.6590     0.5290 n7         1 D3K      -0.823400
     22 O02          3.6190     0.4970    -1.8050 os         1 D3K      -0.442000
     23 O05          1.7920    -0.8600    -0.1940 os         1 D3K      -0.337100
     24 H1           0.3810     1.0960    -2.0190 ha         1 D3K       0.110500
     25 H2          -1.6090    -0.7410     2.6910 ha         1 D3K       0.114000
     26 H3           0.4870     1.0820     0.2680 hc         1 D3K       0.070700
     27 H4           4.1900     2.2250    -2.6930 h1         1 D3K       0.029033
     28 H5           4.7620     0.7690    -3.5240 h1         1 D3K       0.029033
     29 H6           3.0660     1.2570    -3.6620 h1         1 D3K       0.029033
     30 H7           4.0440    -1.3940    -2.5430 h1         1 D3K       0.034200
     31 H8           2.3670    -0.8690    -2.7310 h1         1 D3K       0.034200
     32 H9           2.6780    -2.5630    -0.9810 h1         1 D3K       0.042200
     33 H10          3.7630    -1.4900    -0.0820 h1         1 D3K       0.042200
     34 H11          2.4970    -3.0490     1.2380 ha         1 D3K       0.115000
     35 H12          1.2090    -3.9110     3.1240 ha         1 D3K       0.110000
     36 H13         -0.8680    -2.7640     3.8520 ha         1 D3K       0.114000
     37 H14         -0.6930     0.4580    -4.1430 ha         1 D3K       0.106500
     38 H15         -2.7630    -0.8930    -4.1310 ha         1 D3K       0.107000
     39 H16         -3.7480    -1.6050    -1.9740 ha         1 D3K       0.106500
     40 H17         -2.6740    -0.9750     0.1430 ha         1 D3K       0.110500
     41 H18         -2.2430     0.9920     1.5920 h1         1 D3K       0.065700
     42 H19         -3.1650     3.5600     1.6400 h1         1 D3K       0.050200
     43 H20         -1.9010     4.6590     1.1230 h1         1 D3K       0.050200
     44 H21         -0.6520     4.1590     3.0910 hc         1 D3K       0.044700
     45 H22         -2.0660     3.2960     3.6600 hc         1 D3K       0.044700
     46 H23         -0.7060     1.3530     3.4430 hc         1 D3K       0.051200
     47 H24          0.4290     2.1930     2.4040 hc         1 D3K       0.051200
     48 H25         -0.7890     2.9970     0.0870 hn         1 D3K       0.398000
@<TRIPOS>BOND
     1     1     3 ar  
     2     1    13 ar  
     3     1    24 1   
     4     2     4 ar  
     5     2    12 ar  
     6     2    25 1   
     7     3     5 1   
     8     3    16 ar  
     9     4     5 1   
    10     4     9 ar  
    11     5    17 1   
    12     5    26 1   
    13     6    22 1   
    14     6    27 1   
    15     6    28 1   
    16     6    29 1   
    17     7     8 1   
    18     7    22 1   
    19     7    30 1   
    20     7    31 1   
    21     8    23 1   
    22     8    32 1   
    23     8    33 1   
    24     9    10 ar  
    25     9    23 1   
    26    10    11 ar  
    27    10    34 1   
    28    11    12 ar  
    29    11    35 1   
    30    12    36 1   
    31    13    14 ar  
    32    13    37 1   
    33    14    15 ar  
    34    14    38 1   
    35    15    16 ar  
    36    15    39 1   
    37    16    40 1   
    38    17    20 1   
    39    17    21 1   
    40    17    41 1   
    41    18    19 1   
    42    18    21 1   
    43    18    42 1   
    44    18    43 1   
    45    19    20 1   
    46    19    44 1   
    47    19    45 1   
    48    20    46 1   
    49    20    47 1   
    50    21    48 1   
@<TRIPOS>SUBSTRUCTURE
     1 D3K         1 TEMP              0 ****  ****    0 ROOT
