@<TRIPOS>MOLECULE
D3L
   32    34     1     0     0
SMALL
abcg2


@<TRIPOS>ATOM
      1 C10          1.9510    -1.2910    -0.0460 c          1 D3L       0.606900
      2 C13          4.1960    -0.5120     0.6660 ca         1 D3L      -0.073000
      3 C15          5.1240     1.5650    -0.1110 ca         1 D3L      -0.087000
      4 C17          2.9210     0.9010    -0.8130 ca         1 D3L      -0.073000
      5 C01         -3.0680    -1.0100    -0.3180 ca         1 D3L      -0.093000
      6 C02         -3.9370     0.0290    -0.0450 ca         1 D3L       0.103100
      7 C03         -3.4450     1.2820     0.3880 ca         1 D3L      -0.151000
      8 C04         -2.0940     1.5070     0.5470 ca         1 D3L      -0.100000
      9 C05         -1.2190     0.4600     0.2670 ca         1 D3L      -0.062200
     10 C06         -1.6920    -0.8010    -0.1580 ca         1 D3L      -0.086800
     11 C07         -0.5510    -1.6280    -0.3300 cc         1 D3L      -0.161200
     12 C08          0.5500    -0.8610    -0.0290 cd         1 D3L      -0.160300
     13 N09          0.1400     0.4010     0.3230 na         1 D3L      -0.205700
     14 O11          2.2250    -2.4770    -0.0480 o          1 D3L      -0.507100
     15 C12          3.0260    -0.2630    -0.0520 ca         1 D3L      -0.173600
     16 C14          5.2330     0.4060     0.6480 ca         1 D3L      -0.120000
     17 C16          3.9730     1.8070    -0.8480 ca         1 D3L      -0.120000
     18 C19         -6.1880     0.8050     0.0250 c3         1 D3L       0.151900
     19 H1           4.2870    -1.4180     1.2520 ha         1 D3L       0.126500
     20 H2           5.9380     2.2770    -0.1320 ha         1 D3L       0.116000
     21 H3           2.0360     1.0940    -1.4060 ha         1 D3L       0.126500
     22 H4          -3.4500    -1.9680    -0.6490 ha         1 D3L       0.132000
     23 H5          -4.1260     2.0950     0.5990 ha         1 D3L       0.115000
     24 H6          -1.7350     2.4730     0.8770 ha         1 D3L       0.115000
     25 H7          -0.5330    -2.6550    -0.6570 ha         1 D3L       0.220000
     26 H8           0.7370     1.1350     0.6690 hn         1 D3L       0.356000
     27 H9           6.1300     0.2160     1.2230 ha         1 D3L       0.118500
     28 H10          3.8910     2.7010    -1.4520 ha         1 D3L       0.118500
     29 H11         -6.0320     1.6620    -0.6350 h1         1 D3L       0.037700
     30 H12         -7.1710     0.3850    -0.1770 h1         1 D3L       0.037700
     31 H13         -6.1650     1.1520     1.0620 h1         1 D3L       0.037700
     32 O18         -5.2550    -0.2280    -0.2130 os         1 D3L      -0.346100
@<TRIPOS>BOND
     1     1    12 1   
     2     1    14 2   
     3     1    15 1   
     4     2    15 ar  
     5     2    16 ar  
     6     2    19 1   
     7     3    16 ar  
     8     3    17 ar  
     9     3    20 1   
    10     4    15 ar  
    11     4    17 ar  
    12     4    21 1   
    13     5     6 ar  
    14     5    10 ar  
    15     5    22 1   
    16     6     7 ar  
    17     6    32 1   
    18     7     8 ar  
    19     7    23 1   
    20     8     9 ar  
    21     8    24 1   
    22     9    10 ar  
    23     9    13 1   
    24    10    11 1   
    25    11    12 2   
    26    11    25 1   
    27    12    13 1   
    28    13    26 1   
    29    16    27 1   
    30    17    28 1   
    31    18    29 1   
    32    18    30 1   
    33    18    31 1   
    34    18    32 1   
@<TRIPOS>SUBSTRUCTURE
     1 D3L         1 TEMP              0 ****  ****    0 ROOT
