@<TRIPOS>MOLECULE
D3L
   32    34     1     0     0
SMALL
No Charge or Current Charge


@<TRIPOS>ATOM
      1 C10          1.9680    -1.2850    -0.2540 c          1 D3L       0.606900
      2 C13          4.2100    -0.5910     0.6790 ca         1 D3L      -0.073000
      3 C15          5.2460     1.5300     0.0790 ca         1 D3L      -0.087000
      4 C17          3.0840     0.9190    -0.8640 ca         1 D3L      -0.073000
      5 C01         -3.0720    -1.0360    -0.1900 ca         1 D3L      -0.093000
      6 C02         -3.9940     0.0100     0.0250 ca         1 D3L       0.103100
      7 C03         -3.5210     1.3260     0.2900 ca         1 D3L      -0.151000
      8 C04         -2.1350     1.5900     0.3380 ca         1 D3L      -0.100000
      9 C05         -1.2490     0.5270     0.1190 ca         1 D3L      -0.062200
     10 C06         -1.7050    -0.7340    -0.1350 ca         1 D3L      -0.086800
     11 C07         -0.5610    -1.5730    -0.3090 cc         1 D3L      -0.161200
     12 C08          0.5670    -0.7670    -0.1600 cd         1 D3L      -0.160300
     13 N09          0.1370     0.5600     0.1210 na         1 D3L      -0.205700
     14 O11          2.2050    -2.4770    -0.4180 o          1 D3L      -0.507100
     15 C12          3.0990    -0.2930    -0.1380 ca         1 D3L      -0.173600
     16 C14          5.2760     0.3190     0.7900 ca         1 D3L      -0.120000
     17 C16          4.1520     1.8270    -0.7510 ca         1 D3L      -0.120000
     18 C19         -6.3620     0.6940     0.1730 c3         1 D3L       0.151900
     19 H1           4.2450    -1.5270     1.2340 ha         1 D3L       0.126500
     20 H2           6.0720     2.2330     0.1650 ha         1 D3L       0.116000
     21 H3           2.2570     1.1540    -1.5320 ha         1 D3L       0.126500
     22 H4          -3.4140    -2.0470    -0.3940 ha         1 D3L       0.132000
     23 H5          -4.2110     2.1480     0.4590 ha         1 D3L       0.115000
     24 H6          -1.7660     2.5930     0.5400 ha         1 D3L       0.115000
     25 H7          -0.5550    -2.6420    -0.5190 ha         1 D3L       0.220000
     26 H8           0.7260     1.3650     0.3140 hn         1 D3L       0.356000
     27 H9           6.1250     0.0850     1.4280 ha         1 D3L       0.118500
     28 H10          4.1340     2.7590    -1.3120 ha         1 D3L       0.118500
     29 H11         -6.2860     1.4930    -0.5760 h1         1 D3L       0.037700
     30 H12         -7.3560     0.2390     0.0850 h1         1 D3L       0.037700
     31 H13         -6.2790     1.1390     1.1730 h1         1 D3L       0.037700
     32 O18         -5.3390    -0.2970    -0.0320 os         1 D3L      -0.346100
@<TRIPOS>BOND
     1     1    12 1   
     2     1    14 2   
     3     1    15 1   
     4     2    15 ar  
     5     2    16 ar  
     6     2    19 1   
     7     3    16 ar  
     8     3    17 ar  
     9     3    20 1   
    10     4    15 ar  
    11     4    17 ar  
    12     4    21 1   
    13     5     6 ar  
    14     5    10 ar  
    15     5    22 1   
    16     6     7 ar  
    17     6    32 1   
    18     7     8 ar  
    19     7    23 1   
    20     8     9 ar  
    21     8    24 1   
    22     9    10 ar  
    23     9    13 1   
    24    10    11 1   
    25    11    12 2   
    26    11    25 1   
    27    12    13 1   
    28    13    26 1   
    29    16    27 1   
    30    17    28 1   
    31    18    29 1   
    32    18    30 1   
    33    18    31 1   
    34    18    32 1   
@<TRIPOS>SUBSTRUCTURE
     1 D3L         1 TEMP              0 ****  ****    0 ROOT
