@<TRIPOS>MOLECULE
D3M
   18    18     1     0     0
SMALL
bcc


@<TRIPOS>ATOM
      1 CL1         -3.2870     0.5390    -0.1810 cl         1 D3M      -0.146400
      2 CL2          2.8600     1.3060     0.1950 cl         1 D3M      -0.124400
      3 C1           0.6380    -0.2010    -0.0690 ca         1 D3M      -0.112600
      4 O1           1.8340    -2.0020     0.8470 o          1 D3M      -0.801800
      5 C2           1.1400     1.0810     0.0970 ca         1 D3M       0.050400
      6 O2           1.9020    -1.6850    -1.3670 o          1 D3M      -0.801800
      7 C3           0.3190     2.1930     0.1970 ca         1 D3M      -0.142000
      8 O3          -1.2690    -1.5910    -0.3370 os         1 D3M      -0.318900
      9 C4          -1.0540     2.0280     0.1130 ca         1 D3M      -0.149000
     10 C5          -1.5760     0.7550    -0.0530 ca         1 D3M      -0.004600
     11 C6          -0.7440    -0.3560    -0.1490 ca         1 D3M       0.123100
     12 C8          -1.5730    -2.2930     0.8670 c3         1 D3M       0.126700
     13 H3           0.7370     3.1810     0.3290 ha         1 D3M       0.126000
     14 H4          -1.7100     2.8840     0.1820 ha         1 D3M       0.125000
     15 H8          -1.9340    -3.2780     0.5770 h1         1 D3M       0.035033
     16 H8A         -0.6840    -2.4080     1.4880 h1         1 D3M       0.035033
     17 H8B         -2.3540    -1.7890     1.4410 h1         1 D3M       0.035033
     18 C7           1.5490    -1.4190    -0.2090 c          1 D3M       0.945200
@<TRIPOS>BOND
     1     1    10 1   
     2     2     5 1   
     3     3     5 ar  
     4     3    11 ar  
     5     3    18 1   
     6     4    18 1   
     7     5     7 ar  
     8     6    18 1   
     9     7     9 ar  
    10     7    13 1   
    11     8    11 1   
    12     8    12 1   
    13     9    10 ar  
    14     9    14 1   
    15    10    11 ar  
    16    12    15 1   
    17    12    16 1   
    18    12    17 1   
@<TRIPOS>SUBSTRUCTURE
     1 D3M         1 TEMP              0 ****  ****    0 ROOT
