@<TRIPOS>MOLECULE
D3M
   18    18     1     0     0
SMALL
No Charge or Current Charge


@<TRIPOS>ATOM
      1 Cl1         -3.3240     0.5300    -0.0950 cl         1 D3M      -0.238000
      2 Cl2          2.9530     1.4060     0.1030 cl         1 D3M      -0.216000
      3 C1           0.6980    -0.1840    -0.1010 ca         1 D3M      -0.112600
      4 O1           1.9630    -1.9300     0.7900 o          1 D3M      -0.696500
      5 C2           1.2140     1.1160     0.0550 ca         1 D3M       0.142000
      6 O2           2.0110    -1.6520    -1.3520 o          1 D3M      -0.696500
      7 C3           0.3450     2.2130     0.1770 ca         1 D3M      -0.124000
      8 O3          -1.1990    -1.6550    -0.2820 os         1 D3M      -0.342100
      9 C4          -1.0460     2.0200     0.1380 ca         1 D3M      -0.131000
     10 C5          -1.5710     0.7260    -0.0170 ca         1 D3M       0.087000
     11 C6          -0.6980    -0.3810    -0.1270 ca         1 D3M       0.123100
     12 C8          -1.7010    -2.3570     0.8670 c3         1 D3M       0.149900
     13 H3           0.7500     3.2150     0.2960 ha         1 D3M       0.108000
     14 H4          -1.7160     2.8720     0.2220 ha         1 D3M       0.107000
     15 H8          -2.0600    -3.3520     0.5790 h1         1 D3M       0.035033
     16 H8A         -0.9120    -2.4810     1.6190 h1         1 D3M       0.035033
     17 H8B         -2.5340    -1.8130     1.3290 h1         1 D3M       0.035033
     18 C7           1.6220    -1.3500    -0.2320 c          1 D3M       0.734600
@<TRIPOS>BOND
     1     1    10 1   
     2     2     5 1   
     3     3     5 ar  
     4     3    11 ar  
     5     3    18 1   
     6     4    18 1   
     7     5     7 ar  
     8     6    18 1   
     9     7     9 ar  
    10     7    13 1   
    11     8    11 1   
    12     8    12 1   
    13     9    10 ar  
    14     9    14 1   
    15    10    11 ar  
    16    12    15 1   
    17    12    16 1   
    18    12    17 1   
@<TRIPOS>SUBSTRUCTURE
     1 D3M         1 TEMP              0 ****  ****    0 ROOT
