@<TRIPOS>MOLECULE
D3Q
   41    43     1     0     0
SMALL
abcg2


@<TRIPOS>ATOM
      1 C12          2.9460    -3.4460    -0.1630 ca         1 D3Q      -0.110000
      2 C13          3.0990    -2.4000    -1.0610 ca         1 D3Q      -0.113000
      3 C14          2.4010    -1.2110    -0.8830 ca         1 D3Q      -0.096500
      4 C15          1.3110     1.4740    -0.1760 c5         1 D3Q       0.152500
      5 C01         -5.4110    -0.0640     0.7690 c3         1 D3Q       0.149900
      6 C03         -3.0930    -0.0560     0.2640 ca         1 D3Q       0.140100
      7 C04         -3.3140    -0.3490    -1.0780 ca         1 D3Q      -0.198000
      8 C05         -2.2200    -0.4680    -1.9310 ca         1 D3Q      -0.074000
      9 C06         -0.9270    -0.3040    -1.4700 ca         1 D3Q      -0.136000
     10 C07         -0.7020    -0.0070    -0.1250 ca         1 D3Q      -0.039300
     11 C08          0.7030     0.2000     0.4040 c3         1 D3Q       0.034900
     12 C09          1.5330    -1.0500     0.1920 ca         1 D3Q      -0.065300
     13 C10          1.3880    -2.1070     1.0890 ca         1 D3Q      -0.096500
     14 C11          2.0860    -3.2950     0.9170 ca         1 D3Q      -0.113000
     15 C17          2.8850     3.1390     0.0170 c5         1 D3Q       0.132800
     16 C18          1.5270     3.8740     0.0880 c5         1 D3Q      -0.113400
     17 C19          0.4850     2.7430     0.1010 c5         1 D3Q      -0.110400
     18 C20         -1.7860     0.1130     0.7290 ca         1 D3Q      -0.145000
     19 N16          2.6410     1.7420     0.3560 n7         1 D3Q      -0.822400
     20 H1           3.4930    -4.3700    -0.3000 ha         1 D3Q       0.110000
     21 H2           3.7700    -2.5030    -1.9040 ha         1 D3Q       0.110000
     22 H3           2.5500    -0.4080    -1.5930 ha         1 D3Q       0.113000
     23 H4           1.4110     1.3640    -1.2640 h1         1 D3Q       0.066700
     24 H5          -6.0280     0.1030     1.6490 h1         1 D3Q       0.040033
     25 H6          -5.6860     0.6680     0.0050 h1         1 D3Q       0.040033
     26 H7          -5.6130    -1.0660     0.3820 h1         1 D3Q       0.040033
     27 H8          -4.3100    -0.4890    -1.4740 ha         1 D3Q       0.116000
     28 H9          -2.3940    -0.6960    -2.9750 ha         1 D3Q       0.111000
     29 H10         -0.0960    -0.4110    -2.1570 ha         1 D3Q       0.119000
     30 H11          0.6190     0.3530     1.4870 hc         1 D3Q       0.054700
     31 H12          0.7160    -2.0010     1.9330 ha         1 D3Q       0.113000
     32 H13          1.9570    -4.1010     1.6290 ha         1 D3Q       0.110000
     33 H14          3.2830     3.1900    -1.0000 h1         1 D3Q       0.052200
     34 H15          3.6400     3.5650     0.6780 h1         1 D3Q       0.052200
     35 H16          1.4560     4.4850     0.9890 hc         1 D3Q       0.045700
     36 H17          1.3970     4.5460    -0.7610 hc         1 D3Q       0.045700
     37 H18         -0.3100     2.8870    -0.6300 hc         1 D3Q       0.051700
     38 H19          0.0080     2.6680     1.0820 hc         1 D3Q       0.051700
     39 H20         -1.6270     0.3420     1.7760 ha         1 D3Q       0.123000
     40 H21          2.6020     1.6580     1.3670 hn         1 D3Q       0.400000
     41 O02         -4.0680     0.0830     1.1830 os         1 D3Q      -0.344100
@<TRIPOS>BOND
     1     1     2 ar  
     2     1    14 ar  
     3     1    20 1   
     4     2     3 ar  
     5     2    21 1   
     6     3    12 ar  
     7     3    22 1   
     8     4    11 1   
     9     4    17 1   
    10     4    19 1   
    11     4    23 1   
    12     5    24 1   
    13     5    25 1   
    14     5    26 1   
    15     5    41 1   
    16     6     7 ar  
    17     6    18 ar  
    18     6    41 1   
    19     7     8 ar  
    20     7    27 1   
    21     8     9 ar  
    22     8    28 1   
    23     9    10 ar  
    24     9    29 1   
    25    10    11 1   
    26    10    18 ar  
    27    11    12 1   
    28    11    30 1   
    29    12    13 ar  
    30    13    14 ar  
    31    13    31 1   
    32    14    32 1   
    33    15    16 1   
    34    15    19 1   
    35    15    33 1   
    36    15    34 1   
    37    16    17 1   
    38    16    35 1   
    39    16    36 1   
    40    17    37 1   
    41    17    38 1   
    42    18    39 1   
    43    19    40 1   
@<TRIPOS>SUBSTRUCTURE
     1 D3Q         1 TEMP              0 ****  ****    0 ROOT
