@<TRIPOS>MOLECULE
D3Q
   41    43     1     0     0
SMALL
No Charge or Current Charge


@<TRIPOS>ATOM
      1 C12          2.8770    -3.5060    -0.1310 ca         1 D3Q      -0.110000
      2 C13          3.0240    -2.4740    -1.0720 ca         1 D3Q      -0.113000
      3 C14          2.3320    -1.2610    -0.9040 ca         1 D3Q      -0.096500
      4 C15          1.3780     1.5320    -0.1180 c5         1 D3Q       0.152500
      5 C01         -5.5320    -0.3700     0.7870 c3         1 D3Q       0.149900
      6 C03         -3.1280    -0.1610     0.2680 ca         1 D3Q       0.140100
      7 C04         -3.3430    -0.2680    -1.1230 ca         1 D3Q      -0.198000
      8 C05         -2.2520    -0.2150    -2.0060 ca         1 D3Q      -0.074000
      9 C06         -0.9490    -0.0530    -1.5080 ca         1 D3Q      -0.136000
     10 C07         -0.7210     0.0580    -0.1220 ca         1 D3Q      -0.039300
     11 C08          0.6980     0.2360     0.4250 c3         1 D3Q       0.034900
     12 C09          1.4890    -1.0650     0.2130 ca         1 D3Q      -0.065300
     13 C10          1.3440    -2.1120     1.1470 ca         1 D3Q      -0.096500
     14 C11          2.0350    -3.3240     0.9780 ca         1 D3Q      -0.113000
     15 C17          3.0360     3.1720     0.0130 c5         1 D3Q       0.132800
     16 C18          1.6750     3.9140    -0.1520 c5         1 D3Q      -0.113400
     17 C19          0.6230     2.8370     0.2310 c5         1 D3Q      -0.110400
     18 C20         -1.8210     0.0000     0.7580 ca         1 D3Q      -0.145000
     19 N16          2.6930     1.8140     0.4970 n7         1 D3Q      -0.822400
     20 H1           3.4120    -4.4440    -0.2620 ha         1 D3Q       0.110000
     21 H2           3.6720    -2.6140    -1.9340 ha         1 D3Q       0.110000
     22 H3           2.4580    -0.4810    -1.6500 ha         1 D3Q       0.113000
     23 H4           1.4770     1.4460    -1.2100 h1         1 D3Q       0.066700
     24 H5          -6.1840    -0.3810     1.6690 h1         1 D3Q       0.040033
     25 H6          -5.8500     0.4570     0.1390 h1         1 D3Q       0.040033
     26 H7          -5.6730    -1.3150     0.2480 h1         1 D3Q       0.040033
     27 H8          -4.3400    -0.3930    -1.5340 ha         1 D3Q       0.116000
     28 H9          -2.4160    -0.3000    -3.0780 ha         1 D3Q       0.111000
     29 H10         -0.1140    -0.0190    -2.2050 ha         1 D3Q       0.119000
     30 H11          0.6190     0.3780     1.5100 hc         1 D3Q       0.054700
     31 H12          0.6900    -1.9880     2.0070 ha         1 D3Q       0.113000
     32 H13          1.9160    -4.1240     1.7070 ha         1 D3Q       0.110000
     33 H14          3.5510     3.1110    -0.9560 h1         1 D3Q       0.052200
     34 H15          3.7090     3.6890     0.7120 h1         1 D3Q       0.052200
     35 H16          1.6050     4.7990     0.4890 hc         1 D3Q       0.045700
     36 H17          1.5430     4.2520    -1.1870 hc         1 D3Q       0.045700
     37 H18         -0.3110     2.9480    -0.3330 hc         1 D3Q       0.051700
     38 H19          0.3700     2.8860     1.2970 hc         1 D3Q       0.051700
     39 H20         -1.6680     0.0810     1.8310 ha         1 D3Q       0.123000
     40 H21          2.5560     1.8600     1.5130 hn         1 D3Q       0.400000
     41 O02         -4.1580    -0.2080     1.1850 os         1 D3Q      -0.344100
@<TRIPOS>BOND
     1     1     2 ar  
     2     1    14 ar  
     3     1    20 1   
     4     2     3 ar  
     5     2    21 1   
     6     3    12 ar  
     7     3    22 1   
     8     4    11 1   
     9     4    17 1   
    10     4    19 1   
    11     4    23 1   
    12     5    24 1   
    13     5    25 1   
    14     5    26 1   
    15     5    41 1   
    16     6     7 ar  
    17     6    18 ar  
    18     6    41 1   
    19     7     8 ar  
    20     7    27 1   
    21     8     9 ar  
    22     8    28 1   
    23     9    10 ar  
    24     9    29 1   
    25    10    11 1   
    26    10    18 ar  
    27    11    12 1   
    28    11    30 1   
    29    12    13 ar  
    30    13    14 ar  
    31    13    31 1   
    32    14    32 1   
    33    15    16 1   
    34    15    19 1   
    35    15    33 1   
    36    15    34 1   
    37    16    17 1   
    38    16    35 1   
    39    16    36 1   
    40    17    37 1   
    41    17    38 1   
    42    18    39 1   
    43    19    40 1   
@<TRIPOS>SUBSTRUCTURE
     1 D3Q         1 TEMP              0 ****  ****    0 ROOT
