@<TRIPOS>MOLECULE
D3S
   46    49     1     0     0
SMALL
bcc


@<TRIPOS>ATOM
      1 C4           5.3150    -2.6070     0.1130 ca         1 D3S      -0.125000
      2 C14         -3.1700    -1.0370    -0.1390 ca         1 D3S      -0.127300
      3 C5           3.9570    -2.8370     0.2780 ca         1 D3S      -0.115000
      4 C6           3.0600    -1.7800     0.2670 ca         1 D3S      -0.116000
      5 C7           3.5090    -0.4760     0.0880 ca         1 D3S       0.022900
      6 C9           0.8420     0.2310     0.1140 ce         1 D3S      -0.315600
      7 C10          0.1550     0.1650     1.2820 c2         1 D3S       0.235900
      8 C12         -1.2260    -0.3930     1.3040 c6         1 D3S      -0.081200
      9 C13         -1.9120    -0.1850    -0.0440 c6         1 D3S       0.307400
     10 C3           5.7780    -1.3120    -0.0590 ca         1 D3S      -0.110000
     11 C2           4.8760    -0.2610    -0.0700 ca         1 D3S       0.034400
     12 S8           2.4400     0.9380     0.0550 ss         1 D3S      -0.138500
     13 O11          0.6250     0.5300     2.4490 oh         1 D3S      -0.467100
     14 C15         -3.2660    -2.1110    -1.0170 ca         1 D3S      -0.060000
     15 C16         -4.4180    -2.8820    -1.1010 ca         1 D3S      -0.171000
     16 C17         -5.5020    -2.5820    -0.2930 ca         1 D3S      -0.075000
     17 C18         -5.4280    -1.5210     0.5950 ca         1 D3S      -0.229000
     18 C19         -4.2720    -0.7510     0.6780 ca         1 D3S       0.152100
     19 O20         -4.1760     0.2790     1.5400 oh         1 D3S      -0.497100
     20 C21         -2.2280     1.2720    -0.3720 ca         1 D3S      -0.110300
     21 C22         -2.0350     2.3170     0.5220 ca         1 D3S      -0.096500
     22 C23         -2.3190     3.6270     0.1530 ca         1 D3S      -0.134000
     23 C24         -2.8070     3.9060    -1.1150 ca         1 D3S      -0.115000
     24 C25         -3.0120     2.8660    -2.0120 ca         1 D3S      -0.134000
     25 C26         -2.7250     1.5610    -1.6430 ca         1 D3S      -0.096500
     26 O27         -1.0340    -0.6640    -1.0740 os         1 D3S      -0.436900
     27 C28          0.2510    -0.2820    -1.1150 c          1 D3S       0.779800
     28 O29          0.8600    -0.4300    -2.1430 o          1 D3S      -0.555500
     29 H1           6.0180    -3.4290     0.1190 ha         1 D3S       0.137000
     30 H2           3.5870    -3.8440     0.4180 ha         1 D3S       0.135000
     31 H3           2.0060    -1.9740     0.4060 ha         1 D3S       0.137000
     32 H4          -1.1540    -1.4670     1.5080 hc         1 D3S       0.096200
     33 H5          -1.8000     0.0390     2.1210 hc         1 D3S       0.096200
     34 H6           6.8350    -1.1160    -0.1840 ha         1 D3S       0.147000
     35 H7           1.5350     0.8660     2.3620 ho         1 D3S       0.464000
     36 H8          -2.4320    -2.3600    -1.6580 ha         1 D3S       0.158000
     37 H9          -4.4600    -3.7100    -1.7950 ha         1 D3S       0.139000
     38 H10         -6.4080    -3.1710    -0.3460 ha         1 D3S       0.134000
     39 H11         -6.2730    -1.2850     1.2330 ha         1 D3S       0.133000
     40 H12         -4.9890     0.3650     2.0520 ho         1 D3S       0.429000
     41 H13         -1.6760     2.1370     1.5260 ha         1 D3S       0.136000
     42 H14         -2.1600     4.4270     0.8640 ha         1 D3S       0.131500
     43 H15         -3.0280     4.9250    -1.4020 ha         1 D3S       0.131000
     44 H16         -3.3980     3.0710    -3.0020 ha         1 D3S       0.131500
     45 H17         -2.8940     0.7630    -2.3560 ha         1 D3S       0.136000
     46 CL1          5.4620     1.3560    -0.2790 cl         1 D3S      -0.097400
@<TRIPOS>BOND
     1     1     3 ar  
     2     1    10 ar  
     3     1    29 1   
     4     2     9 1   
     5     2    14 ar  
     6     2    18 ar  
     7     3     4 ar  
     8     3    30 1   
     9     4     5 ar  
    10     4    31 1   
    11     5    11 ar  
    12     5    12 1   
    13     6     7 2   
    14     6    12 1   
    15     6    27 1   
    16     7     8 1   
    17     7    13 1   
    18     8     9 1   
    19     8    32 1   
    20     8    33 1   
    21     9    20 1   
    22     9    26 1   
    23    10    11 ar  
    24    10    34 1   
    25    11    46 1   
    26    13    35 1   
    27    14    15 ar  
    28    14    36 1   
    29    15    16 ar  
    30    15    37 1   
    31    16    17 ar  
    32    16    38 1   
    33    17    18 ar  
    34    17    39 1   
    35    18    19 1   
    36    19    40 1   
    37    20    21 ar  
    38    20    25 ar  
    39    21    22 ar  
    40    21    41 1   
    41    22    23 ar  
    42    22    42 1   
    43    23    24 ar  
    44    23    43 1   
    45    24    25 ar  
    46    24    44 1   
    47    25    45 1   
    48    26    27 1   
    49    27    28 2   
@<TRIPOS>SUBSTRUCTURE
     1 D3S         1 TEMP              0 ****  ****    0 ROOT
