@<TRIPOS>MOLECULE
D3S
   46    49     1     0     0
SMALL
No Charge or Current Charge


@<TRIPOS>ATOM
      1 C4           5.2930    -2.4990     0.8430 ca         1 D3S      -0.107000
      2 C14         -3.2370    -1.0480    -0.1340 ca         1 D3S      -0.127300
      3 C5           4.1500    -2.8580     0.1090 ca         1 D3S      -0.097000
      4 C6           3.3050    -1.8630    -0.4120 ca         1 D3S      -0.098000
      5 C7           3.5980    -0.5010    -0.1990 ca         1 D3S      -0.104000
      6 C9           0.8780     0.1190    -0.5030 ce         1 D3S      -0.315600
      7 C10          0.3750    -0.0050     0.7330 c2         1 D3S       0.235900
      8 C12         -1.0070    -0.5460     0.9750 c6         1 D3S      -0.081200
      9 C13         -1.9150    -0.2350    -0.2400 c6         1 D3S       0.330600
     10 C3           5.5910    -1.1420     1.0560 ca         1 D3S      -0.092000
     11 C2           4.7490    -0.1440     0.5360 ca         1 D3S       0.126000
     12 S8           2.5120     0.7570    -0.8680 ss         1 D3S      -0.011600
     13 O11          1.0440     0.3250     1.8450 oh         1 D3S      -0.506100
     14 C15         -3.5140    -2.1070    -1.0370 ca         1 D3S      -0.042000
     15 C16         -4.7090    -2.8400    -0.9440 ca         1 D3S      -0.153000
     16 C17         -5.6500    -2.5370     0.0480 ca         1 D3S      -0.057000
     17 C18         -5.3920    -1.4970     0.9520 ca         1 D3S      -0.211000
     18 C19         -4.2000    -0.7580     0.8680 ca         1 D3S       0.152100
     19 O20         -4.0010     0.2370     1.7790 oh         1 D3S      -0.536100
     20 C21         -2.2310     1.2700    -0.4690 ca         1 D3S      -0.110300
     21 C22         -1.8470     2.2940     0.4330 ca         1 D3S      -0.078500
     22 C23         -2.1580     3.6390     0.1630 ca         1 D3S      -0.116000
     23 C24         -2.8580     3.9840    -1.0030 ca         1 D3S      -0.097000
     24 C25         -3.2500     2.9810    -1.9020 ca         1 D3S      -0.116000
     25 C26         -2.9400     1.6360    -1.6360 ca         1 D3S      -0.078500
     26 O27         -1.2170    -0.6520    -1.4340 os         1 D3S      -0.460100
     27 C28          0.0730    -0.2700    -1.7060 c          1 D3S       0.704300
     28 O29          0.5200    -0.2860    -2.8420 o          1 D3S      -0.480000
     29 H1           5.9460    -3.2700     1.2460 ha         1 D3S       0.119000
     30 H2           3.9190    -3.9080    -0.0580 ha         1 D3S       0.117000
     31 H3           2.4270    -2.1520    -0.9840 ha         1 D3S       0.119000
     32 H4          -0.9410    -1.6320     1.1130 hc         1 D3S       0.096200
     33 H5          -1.4270    -0.1450     1.9040 hc         1 D3S       0.096200
     34 H6           6.4750    -0.8630     1.6240 ha         1 D3S       0.129000
     35 H7           1.9270     0.6330     1.5530 ho         1 D3S       0.503000
     36 H8          -2.8100    -2.3790    -1.8200 ha         1 D3S       0.140000
     37 H9          -4.9040    -3.6480    -1.6460 ha         1 D3S       0.121000
     38 H10         -6.5740    -3.1070     0.1170 ha         1 D3S       0.116000
     39 H11         -6.1270    -1.2710     1.7210 ha         1 D3S       0.115000
     40 H12         -4.7930     0.2910     2.3550 ho         1 D3S       0.468000
     41 H13         -1.3130     2.0700     1.3510 ha         1 D3S       0.118000
     42 H14         -1.8580     4.4150     0.8640 ha         1 D3S       0.113500
     43 H15         -3.0970     5.0250    -1.2080 ha         1 D3S       0.113000
     44 H16         -3.7950     3.2440    -2.8060 ha         1 D3S       0.113500
     45 H17         -3.2530     0.8720    -2.3440 ha         1 D3S       0.118000
     46 Cl1          5.1450     1.5480     0.8320 cl         1 D3S      -0.189000
@<TRIPOS>BOND
     1     1     3 ar  
     2     1    10 ar  
     3     1    29 1   
     4     2     9 1   
     5     2    14 ar  
     6     2    18 ar  
     7     3     4 ar  
     8     3    30 1   
     9     4     5 ar  
    10     4    31 1   
    11     5    11 ar  
    12     5    12 1   
    13     6     7 2   
    14     6    12 1   
    15     6    27 1   
    16     7     8 1   
    17     7    13 1   
    18     8     9 1   
    19     8    32 1   
    20     8    33 1   
    21     9    20 1   
    22     9    26 1   
    23    10    11 ar  
    24    10    34 1   
    25    11    46 1   
    26    13    35 1   
    27    14    15 ar  
    28    14    36 1   
    29    15    16 ar  
    30    15    37 1   
    31    16    17 ar  
    32    16    38 1   
    33    17    18 ar  
    34    17    39 1   
    35    18    19 1   
    36    19    40 1   
    37    20    21 ar  
    38    20    25 ar  
    39    21    22 ar  
    40    21    41 1   
    41    22    23 ar  
    42    22    42 1   
    43    23    24 ar  
    44    23    43 1   
    45    24    25 ar  
    46    24    44 1   
    47    25    45 1   
    48    26    27 1   
    49    27    28 2   
@<TRIPOS>SUBSTRUCTURE
     1 D3S         1 TEMP              0 ****  ****    0 ROOT
