@<TRIPOS>MOLECULE
D3V
   74    76     1     0     0
SMALL
bcc


@<TRIPOS>ATOM
      1 C4          -3.3790     0.1840    -0.6710 c3         1 D3V       0.179800
      2 C5          -3.7250     1.2280    -1.7260 c3         1 D3V      -0.080100
      3 C6          -4.5950    -0.0310     0.2580 c3         1 D3V      -0.109400
      4 C7          -5.8210    -0.6740    -0.3820 c3         1 D3V      -0.070400
      5 C8          -6.9830    -0.7660     0.6020 c3         1 D3V      -0.074400
      6 C9          -8.2140    -1.5100     0.0810 c3         1 D3V      -0.059700
      7 C10         -9.2660    -1.6250     1.1790 c3         1 D3V      -0.087600
      8 C11         -8.8120    -0.8480    -1.1580 c3         1 D3V      -0.087600
      9 C12         -0.8580     1.1230    -0.4210 c5         1 D3V      -0.027000
     10 C13         -0.3170     0.1470    -1.4680 c3         1 D3V      -0.076100
     11 C14         -0.8610     2.5570    -0.9640 c6         1 D3V      -0.063400
     12 C15          0.5530     3.0780    -1.2270 c6         1 D3V      -0.071400
     13 C24          5.5430    -2.1370     0.3230 c6         1 D3V       0.188300
     14 C23          6.9430    -1.7100    -0.0950 c6         1 D3V      -0.065400
     15 C22          6.9570    -0.3290    -0.7350 c6         1 D3V       0.153100
     16 O1           8.3000    -0.0160    -1.0400 oh         1 D3V      -0.599800
     17 C21          6.3380     0.6970     0.2180 c6         1 D3V      -0.074200
     18 C25          4.9040    -1.0830     1.2000 ce         1 D3V      -0.123200
     19 C26          4.3830    -1.3900     2.3870 c2         1 D3V      -0.197000
     20 C20          4.9550     0.2790     0.6390 ce         1 D3V      -0.066200
     21 C19          3.8890     1.0770     0.4510 cf         1 D3V      -0.111000
     22 C17          1.4440     1.5460     0.5450 c2         1 D3V      -0.077400
     23 C            0.0430     1.1170     0.8430 c5         1 D3V      -0.039500
     24 C16          1.4780     2.9430    -0.0100 c6         1 D3V      -0.041200
     25 C3          -2.1890     0.6380     0.2110 c5         1 D3V      -0.082700
     26 C2          -1.7500    -0.4240     1.2580 c5         1 D3V      -0.076400
     27 C1          -0.2430    -0.2230     1.4990 c5         1 D3V      -0.070400
     28 O           -3.0990    -1.0060    -1.3930 oh         1 D3V      -0.595800
     29 H9          -2.9420     1.3270    -2.4760 hc         1 D3V       0.043033
     30 H8          -4.6440     0.9640    -2.2500 hc         1 D3V       0.043033
     31 H10         -3.8770     2.2050    -1.2680 hc         1 D3V       0.043033
     32 H12         -4.3000    -0.6500     1.1120 hc         1 D3V       0.039700
     33 H13         -4.8770     0.9380     0.6830 hc         1 D3V       0.039700
     34 H15         -6.1340    -0.1070    -1.2620 hc         1 D3V       0.045200
     35 H14         -5.5700    -1.6780    -0.7370 hc         1 D3V       0.045200
     36 H16         -6.6360    -1.2660     1.5140 hc         1 D3V       0.034700
     37 H17         -7.2810     0.2440     0.9080 hc         1 D3V       0.034700
     38 H18         -7.9000    -2.5240    -0.1960 hc         1 D3V       0.044700
     39 H20         -9.6110    -0.6360     1.4920 hc         1 D3V       0.031867
     40 H21        -10.1390    -2.1860     0.8390 hc         1 D3V       0.031867
     41 H19         -8.8720    -2.1320     2.0620 hc         1 D3V       0.031867
     42 H23         -8.1180    -0.8410    -1.9990 hc         1 D3V       0.031867
     43 H22         -9.7120    -1.3730    -1.4830 hc         1 D3V       0.031867
     44 H24         -9.0910     0.1880    -0.9490 hc         1 D3V       0.031867
     45 H26         -0.9150     0.1720    -2.3780 hc         1 D3V       0.037700
     46 H27          0.7110     0.3880    -1.7390 hc         1 D3V       0.037700
     47 H25         -0.3190    -0.8840    -1.1140 hc         1 D3V       0.037700
     48 H28         -1.4430     2.6350    -1.8830 hc         1 D3V       0.040200
     49 H29         -1.3530     3.2090    -0.2330 hc         1 D3V       0.040200
     50 H30          0.9950     2.5470    -2.0740 hc         1 D3V       0.042200
     51 H31          0.5020     4.1280    -1.5230 hc         1 D3V       0.042200
     52 H3           5.6130    -3.0750     0.8890 h1         1 D3V       0.036700
     53 H39          7.5780    -1.6990     0.7960 hc         1 D3V       0.062200
     54 H40          7.3640    -2.4530    -0.7800 hc         1 D3V       0.062200
     55 H2           6.3530    -0.3510    -1.6520 h1         1 D3V       0.050700
     56 H38          8.3110     0.8180    -1.5210 ho         1 D3V       0.403000
     57 H37          6.9870     0.7720     1.0990 hc         1 D3V       0.051700
     58 H36          6.3100     1.6840    -0.2530 hc         1 D3V       0.051700
     59 H42          3.9460    -0.6390     3.0330 ha         1 D3V       0.118000
     60 H43          4.3910    -2.4090     2.7560 ha         1 D3V       0.118000
     61 H35          4.0890     2.0500     0.0130 ha         1 D3V       0.119000
     62 H           -0.3800     1.8910     1.5030 hc         1 D3V       0.051700
     63 H32          2.4840     3.2640    -0.2800 hc         1 D3V       0.045700
     64 H33          1.1310     3.6310     0.7700 hc         1 D3V       0.045700
     65 H1          -2.5710     1.4990     0.7740 hc         1 D3V       0.046700
     66 H6          -2.3150    -0.3050     2.1820 hc         1 D3V       0.037200
     67 H7          -1.9420    -1.4470     0.9250 hc         1 D3V       0.037200
     68 H5           0.3330    -1.0240     1.0320 hc         1 D3V       0.045200
     69 H4           0.0160    -0.2280     2.5590 hc         1 D3V       0.045200
     70 H11         -2.9270    -1.7180    -0.7690 ho         1 D3V       0.400000
     71 C18          2.5070     0.7490     0.7390 cf         1 D3V      -0.140000
     72 O2           4.7810    -2.3200    -0.8560 oh         1 D3V      -0.593800
     73 H41          3.8830    -2.5540    -0.6000 ho         1 D3V       0.405000
     74 H34          2.3260    -0.2450     1.1330 ha         1 D3V       0.123000
@<TRIPOS>BOND
     1     1     2 1   
     2     1     3 1   
     3     1    25 1   
     4     1    28 1   
     5     2    29 1   
     6     2    30 1   
     7     2    31 1   
     8     3     4 1   
     9     3    32 1   
    10     3    33 1   
    11     4     5 1   
    12     4    34 1   
    13     4    35 1   
    14     5     6 1   
    15     5    36 1   
    16     5    37 1   
    17     6     7 1   
    18     6     8 1   
    19     6    38 1   
    20     7    39 1   
    21     7    40 1   
    22     7    41 1   
    23     8    42 1   
    24     8    43 1   
    25     8    44 1   
    26     9    10 1   
    27     9    11 1   
    28     9    23 1   
    29     9    25 1   
    30    10    45 1   
    31    10    46 1   
    32    10    47 1   
    33    11    12 1   
    34    11    48 1   
    35    11    49 1   
    36    12    24 1   
    37    12    50 1   
    38    12    51 1   
    39    13    14 1   
    40    13    18 1   
    41    13    52 1   
    42    13    72 1   
    43    14    15 1   
    44    14    53 1   
    45    14    54 1   
    46    15    16 1   
    47    15    17 1   
    48    15    55 1   
    49    16    56 1   
    50    17    20 1   
    51    17    57 1   
    52    17    58 1   
    53    18    19 2   
    54    18    20 1   
    55    19    59 1   
    56    19    60 1   
    57    20    21 2   
    58    21    61 1   
    59    21    71 1   
    60    22    23 1   
    61    22    24 1   
    62    22    71 2   
    63    23    27 1   
    64    23    62 1   
    65    24    63 1   
    66    24    64 1   
    67    25    26 1   
    68    25    65 1   
    69    26    27 1   
    70    26    66 1   
    71    26    67 1   
    72    27    68 1   
    73    27    69 1   
    74    28    70 1   
    75    71    74 1   
    76    72    73 1   
@<TRIPOS>SUBSTRUCTURE
     1 D3V         1 TEMP              0 ****  ****    0 ROOT
