@<TRIPOS>MOLECULE
D3V
   74    76     1     0     0
SMALL
No Charge or Current Charge


@<TRIPOS>ATOM
      1 C4          -3.5240     0.2780    -0.7720 c3         1 D3V       0.203000
      2 C5          -3.9470     1.4850    -1.6470 c3         1 D3V      -0.080100
      3 C6          -4.6850    -0.1090     0.2110 c3         1 D3V      -0.109400
      4 C7          -6.0600    -0.4920    -0.4070 c3         1 D3V      -0.070400
      5 C8          -7.0730    -0.9820     0.6570 c3         1 D3V      -0.074400
      6 C9          -8.4330    -1.4730     0.0870 c3         1 D3V      -0.059700
      7 C10         -9.3020    -2.1010     1.2010 c3         1 D3V      -0.087600
      8 C11         -9.2150    -0.3630    -0.6560 c3         1 D3V      -0.087600
      9 C12         -0.8670     1.1260    -0.5870 c5         1 D3V      -0.027000
     10 C13         -0.4050     0.2300    -1.7890 c3         1 D3V      -0.076100
     11 C14         -0.8780     2.6210    -1.0550 c6         1 D3V      -0.063400
     12 C15          0.5500     3.1520    -1.3690 c6         1 D3V      -0.071400
     13 C24          5.8380    -2.1540     0.8170 c6         1 D3V       0.211500
     14 C23          7.2670    -1.7210     0.4090 c6         1 D3V      -0.065400
     15 C22          7.2540    -0.4790    -0.5160 c6         1 D3V       0.176300
     16 O1           8.5970    -0.0760    -0.8110 oh         1 D3V      -0.662000
     17 C21          6.4820     0.6880     0.1490 c6         1 D3V      -0.074200
     18 C25          5.0400    -0.9670     1.3780 ce         1 D3V      -0.123200
     19 C26          4.4050    -1.0400     2.5690 c2         1 D3V      -0.297000
     20 C20          5.0660     0.2540     0.5490 ce         1 D3V      -0.066200
     21 C19          3.9770     0.9990     0.1930 cf         1 D3V      -0.161000
     22 C17          1.4860     1.4700     0.3180 c2         1 D3V      -0.077400
     23 C            0.0530     1.0410     0.6840 c5         1 D3V      -0.039500
     24 C16          1.5420     2.9130    -0.2020 c6         1 D3V      -0.041200
     25 C3          -2.1990     0.6000     0.1000 c5         1 D3V      -0.082700
     26 C2          -1.6840    -0.6280     0.9560 c5         1 D3V      -0.076400
     27 C1          -0.1450    -0.4310     1.1330 c5         1 D3V      -0.070400
     28 O           -3.3620    -0.8460    -1.6870 oh         1 D3V      -0.658000
     29 H9          -3.2380     1.6360    -2.4670 hc         1 D3V       0.043033
     30 H8          -4.9180     1.3270    -2.1270 hc         1 D3V       0.043033
     31 H10         -4.0040     2.4040    -1.0520 hc         1 D3V       0.043033
     32 H12         -4.3590    -0.9560     0.8260 hc         1 D3V       0.039700
     33 H13         -4.8460     0.7230     0.9080 hc         1 D3V       0.039700
     34 H15         -6.4840     0.3780    -0.9180 hc         1 D3V       0.045200
     35 H14         -5.9260    -1.2800    -1.1580 hc         1 D3V       0.045200
     36 H16         -6.6140    -1.8050     1.2180 hc         1 D3V       0.034700
     37 H17         -7.2540    -0.1750     1.3790 hc         1 D3V       0.034700
     38 H18         -8.2210    -2.2680    -0.6400 hc         1 D3V       0.044700
     39 H20         -9.5550    -1.3560     1.9660 hc         1 D3V       0.031867
     40 H21        -10.2370    -2.4980     0.7870 hc         1 D3V       0.031867
     41 H19         -8.7720    -2.9280     1.6880 hc         1 D3V       0.031867
     42 H23         -8.6710    -0.0180    -1.5420 hc         1 D3V       0.031867
     43 H22        -10.1890    -0.7380    -0.9950 hc         1 D3V       0.031867
     44 H24         -9.3910     0.4980     0.0010 hc         1 D3V       0.031867
     45 H26         -0.9970     0.4420    -2.6860 hc         1 D3V       0.037700
     46 H27          0.6470     0.3940    -2.0490 hc         1 D3V       0.037700
     47 H25         -0.5150    -0.8400    -1.5860 hc         1 D3V       0.037700
     48 H28         -1.4930     2.7600    -1.9500 hc         1 D3V       0.040200
     49 H29         -1.3300     3.2490    -0.2740 hc         1 D3V       0.040200
     50 H30          0.9360     2.6770    -2.2800 hc         1 D3V       0.042200
     51 H31          0.5000     4.2270    -1.5930 hc         1 D3V       0.042200
     52 H3           5.9300    -2.9230     1.5990 h1         1 D3V       0.036700
     53 H39          7.8420    -1.4930     1.3170 hc         1 D3V       0.062200
     54 H40          7.7840    -2.5540    -0.0840 hc         1 D3V       0.062200
     55 H2           6.7330    -0.7490    -1.4480 h1         1 D3V       0.050700
     56 H38          8.5340     0.6640    -1.4540 ho         1 D3V       0.442000
     57 H37          7.0190     1.0290     1.0450 hc         1 D3V       0.051700
     58 H36          6.4460     1.5450    -0.5370 hc         1 D3V       0.051700
     59 H42          3.8630    -0.1870     2.9790 ha         1 D3V       0.168000
     60 H43          4.4140    -1.9470     3.1740 ha         1 D3V       0.168000
     61 H35          4.1700     1.8940    -0.3950 ha         1 D3V       0.169000
     62 H           -0.2990     1.7120     1.4800 hc         1 D3V       0.051700
     63 H32          2.5430     3.2150    -0.5230 hc         1 D3V       0.045700
     64 H33          1.2850     3.5890     0.6250 hc         1 D3V       0.045700
     65 H1          -2.5320     1.3770     0.8000 hc         1 D3V       0.046700
     66 H6          -2.1890    -0.6610     1.9280 hc         1 D3V       0.037200
     67 H7          -1.8840    -1.5900     0.4730 hc         1 D3V       0.037200
     68 H5           0.4050    -1.1430     0.5090 hc         1 D3V       0.045200
     69 H4           0.1790    -0.5940     2.1670 hc         1 D3V       0.045200
     70 H11         -3.0730    -1.6060    -1.1430 ho         1 D3V       0.439000
     71 C18          2.5800     0.6770     0.5000 cf         1 D3V      -0.190000
     72 O2           5.1370    -2.7030    -0.3000 oh         1 D3V      -0.656000
     73 H41          4.1880    -2.6790    -0.0530 ho         1 D3V       0.444000
     74 H34          2.4340    -0.3170     0.9170 ha         1 D3V       0.173000
@<TRIPOS>BOND
     1     1     2 1   
     2     1     3 1   
     3     1    25 1   
     4     1    28 1   
     5     2    29 1   
     6     2    30 1   
     7     2    31 1   
     8     3     4 1   
     9     3    32 1   
    10     3    33 1   
    11     4     5 1   
    12     4    34 1   
    13     4    35 1   
    14     5     6 1   
    15     5    36 1   
    16     5    37 1   
    17     6     7 1   
    18     6     8 1   
    19     6    38 1   
    20     7    39 1   
    21     7    40 1   
    22     7    41 1   
    23     8    42 1   
    24     8    43 1   
    25     8    44 1   
    26     9    10 1   
    27     9    11 1   
    28     9    23 1   
    29     9    25 1   
    30    10    45 1   
    31    10    46 1   
    32    10    47 1   
    33    11    12 1   
    34    11    48 1   
    35    11    49 1   
    36    12    24 1   
    37    12    50 1   
    38    12    51 1   
    39    13    14 1   
    40    13    18 1   
    41    13    52 1   
    42    13    72 1   
    43    14    15 1   
    44    14    53 1   
    45    14    54 1   
    46    15    16 1   
    47    15    17 1   
    48    15    55 1   
    49    16    56 1   
    50    17    20 1   
    51    17    57 1   
    52    17    58 1   
    53    18    19 2   
    54    18    20 1   
    55    19    59 1   
    56    19    60 1   
    57    20    21 2   
    58    21    61 1   
    59    21    71 1   
    60    22    23 1   
    61    22    24 1   
    62    22    71 2   
    63    23    27 1   
    64    23    62 1   
    65    24    63 1   
    66    24    64 1   
    67    25    26 1   
    68    25    65 1   
    69    26    27 1   
    70    26    66 1   
    71    26    67 1   
    72    27    68 1   
    73    27    69 1   
    74    28    70 1   
    75    71    74 1   
    76    72    73 1   
@<TRIPOS>SUBSTRUCTURE
     1 D3V         1 TEMP              0 ****  ****    0 ROOT
