@<TRIPOS>MOLECULE
D3W
   41    43     1     0     0
SMALL
No Charge or Current Charge


@<TRIPOS>ATOM
      1 C14          2.2300     2.9950    -1.0460 ca         1 D3W      -0.112500
      2 C10          1.3650     0.8640    -0.2070 ca         1 D3W      -0.053300
      3 C13          3.2310     2.9860    -0.0630 ca         1 D3W      -0.112000
      4 C11          2.3740     0.8690     0.7840 ca         1 D3W      -0.095000
      5 C12          3.3020     1.9240     0.8520 ca         1 D3W      -0.112500
      6 C01         -3.2860     0.3310    -2.6670 c3         1 D3W       0.149900
      7 C03         -2.1770     0.4270    -0.4550 ca         1 D3W       0.147100
      8 C04         -3.3610     0.8740     0.1760 ca         1 D3W      -0.198000
      9 C05         -3.3800     1.1310     1.5560 ca         1 D3W      -0.072000
     10 C06         -2.2180     0.9450     2.3170 ca         1 D3W      -0.148000
     11 C07         -1.0370     0.5010     1.7020 ca         1 D3W      -0.076000
     12 C08         -1.0020     0.2360     0.3160 ca         1 D3W      -0.101300
     13 C09          0.3140    -0.2530    -0.3130 c3         1 D3W       0.042900
     14 C15          1.3020     1.9410    -1.1150 ca         1 D3W      -0.095000
     15 C16          0.7410    -1.6440     0.2540 c5         1 D3W       0.152500
     16 C18          2.0040    -3.6020     0.1150 c5         1 D3W       0.133800
     17 C19          0.5310    -4.0330     0.3830 c5         1 D3W      -0.114400
     18 C20         -0.2940    -2.7680     0.0150 c5         1 D3W      -0.112400
     19 N17          1.9230    -2.2240    -0.4220 n7         1 D3W      -0.820400
     20 O02         -2.1400     0.1670    -1.8130 os         1 D3W      -0.343100
     21 H1           2.1700     3.8190    -1.7540 ha         1 D3W       0.108000
     22 H2           3.9490     3.8010    -0.0080 ha         1 D3W       0.108000
     23 H3           2.4480     0.0630     1.5070 ha         1 D3W       0.108500
     24 H4           4.0750     1.9170     1.6170 ha         1 D3W       0.108000
     25 H5          -3.0290     0.0690    -3.7010 h1         1 D3W       0.040367
     26 H6          -4.1080    -0.3210    -2.3460 h1         1 D3W       0.040367
     27 H7          -3.6350     1.3710    -2.6560 h1         1 D3W       0.040367
     28 H8          -4.2770     1.0290    -0.3860 ha         1 D3W       0.116000
     29 H9          -4.2940     1.4760     2.0340 ha         1 D3W       0.111000
     30 H10         -2.2310     1.1460     3.3860 ha         1 D3W       0.115000
     31 H11         -0.1440     0.3660     2.3080 ha         1 D3W       0.114000
     32 H12          0.1610    -0.4160    -1.3850 hc         1 D3W       0.063700
     33 H13          0.5260     1.9630    -1.8770 ha         1 D3W       0.108500
     34 H14          0.9300    -1.5400     1.3330 h1         1 D3W       0.065700
     35 H15          2.5750    -3.6100     1.0550 h1         1 D3W       0.051700
     36 H16          2.5140    -4.2770    -0.5870 h1         1 D3W       0.051700
     37 H17          0.2370    -4.9000    -0.2200 hc         1 D3W       0.045200
     38 H18          0.3930    -4.3090     1.4350 hc         1 D3W       0.045200
     39 H19         -1.1890    -2.6580     0.6380 hc         1 D3W       0.049700
     40 H20         -0.6260    -2.7970    -1.0300 hc         1 D3W       0.049700
     41 H21          1.7090    -2.2810    -1.4240 hn         1 D3W       0.398000
@<TRIPOS>BOND
     1     1     3 ar  
     2     1    14 ar  
     3     1    21 1   
     4     2     4 ar  
     5     2    13 1   
     6     2    14 ar  
     7     3     5 ar  
     8     3    22 1   
     9     4     5 ar  
    10     4    23 1   
    11     5    24 1   
    12     6    20 1   
    13     6    25 1   
    14     6    26 1   
    15     6    27 1   
    16     7     8 ar  
    17     7    12 ar  
    18     7    20 1   
    19     8     9 ar  
    20     8    28 1   
    21     9    10 ar  
    22     9    29 1   
    23    10    11 ar  
    24    10    30 1   
    25    11    12 ar  
    26    11    31 1   
    27    12    13 1   
    28    13    15 1   
    29    13    32 1   
    30    14    33 1   
    31    15    18 1   
    32    15    19 1   
    33    15    34 1   
    34    16    17 1   
    35    16    19 1   
    36    16    35 1   
    37    16    36 1   
    38    17    18 1   
    39    17    37 1   
    40    17    38 1   
    41    18    39 1   
    42    18    40 1   
    43    19    41 1   
@<TRIPOS>SUBSTRUCTURE
     1 D3W         1 TEMP              0 ****  ****    0 ROOT
