@<TRIPOS>MOLECULE
D3W
   41    43     1     0     0
SMALL
abcg2


@<TRIPOS>ATOM
      1 C14          2.3720     2.1900    -1.7660 ca         1 D3W      -0.112500
      2 C10          1.0920     0.6720    -0.3810 ca         1 D3W      -0.053300
      3 C13          2.8680     2.8250    -0.6360 ca         1 D3W      -0.112000
      4 C11          1.5930     1.3210     0.7460 ca         1 D3W      -0.095000
      5 C12          2.4750     2.3840     0.6220 ca         1 D3W      -0.112500
      6 C01         -2.7780     1.5280    -2.4150 c3         1 D3W       0.149900
      7 C03         -2.1190     0.6520    -0.3060 ca         1 D3W       0.147100
      8 C04         -3.2780     1.1170     0.3090 ca         1 D3W      -0.198000
      9 C05         -3.4730     0.9140     1.6700 ca         1 D3W      -0.072000
     10 C06         -2.5190     0.2510     2.4200 ca         1 D3W      -0.148000
     11 C07         -1.3670    -0.2140     1.7960 ca         1 D3W      -0.076000
     12 C08         -1.1420    -0.0340     0.4380 ca         1 D3W      -0.101300
     13 C09          0.1290    -0.4900    -0.2490 c3         1 D3W       0.042900
     14 C15          1.4900     1.1230    -1.6350 ca         1 D3W      -0.095000
     15 C16          0.7860    -1.7020     0.4110 c5         1 D3W       0.152500
     16 C18          2.2640    -3.4500     0.1480 c5         1 D3W       0.133800
     17 C19          0.8980    -4.1310     0.3900 c5         1 D3W      -0.114400
     18 C20         -0.1020    -2.9620     0.4420 c5         1 D3W      -0.112400
     19 N17          1.9970    -2.0900    -0.3030 n7         1 D3W      -0.820400
     20 O02         -1.8530     0.8230    -1.6150 os         1 D3W      -0.343100
     21 H1           2.6660     2.5260    -2.7520 ha         1 D3W       0.108000
     22 H2           3.5530     3.6570    -0.7330 ha         1 D3W       0.108000
     23 H3           1.2930     0.9970     1.7360 ha         1 D3W       0.108500
     24 H4           2.8530     2.8740     1.5110 ha         1 D3W       0.108000
     25 H5          -2.3560     1.5620    -3.4160 h1         1 D3W       0.040367
     26 H6          -3.7490     1.0270    -2.4580 h1         1 D3W       0.040367
     27 H7          -2.9270     2.5520    -2.0610 h1         1 D3W       0.040367
     28 H8          -4.0370     1.6430    -0.2550 ha         1 D3W       0.116000
     29 H9          -4.3780     1.2840     2.1350 ha         1 D3W       0.111000
     30 H10         -2.6630     0.0910     3.4810 ha         1 D3W       0.115000
     31 H11         -0.6260    -0.7290     2.3960 ha         1 D3W       0.114000
     32 H12         -0.1340    -0.8130    -1.2620 hc         1 D3W       0.063700
     33 H13          1.1030     0.6370    -2.5230 ha         1 D3W       0.108500
     34 H14          1.0890    -1.4570     1.4370 h1         1 D3W       0.065700
     35 H15          2.8300    -3.4070     1.0830 h1         1 D3W       0.051700
     36 H16          2.8840    -3.9760    -0.5770 h1         1 D3W       0.051700
     37 H17          0.6530    -4.8210    -0.4180 hc         1 D3W       0.045200
     38 H18          0.9010    -4.7120     1.3130 hc         1 D3W       0.045200
     39 H19         -0.7490    -3.0000     1.3180 hc         1 D3W       0.049700
     40 H20         -0.7520    -2.9690    -0.4370 hc         1 D3W       0.049700
     41 H21          1.7890    -2.1160    -1.2960 hn         1 D3W       0.398000
@<TRIPOS>BOND
     1     1     3 ar  
     2     1    14 ar  
     3     1    21 1   
     4     2     4 ar  
     5     2    13 1   
     6     2    14 ar  
     7     3     5 ar  
     8     3    22 1   
     9     4     5 ar  
    10     4    23 1   
    11     5    24 1   
    12     6    20 1   
    13     6    25 1   
    14     6    26 1   
    15     6    27 1   
    16     7     8 ar  
    17     7    12 ar  
    18     7    20 1   
    19     8     9 ar  
    20     8    28 1   
    21     9    10 ar  
    22     9    29 1   
    23    10    11 ar  
    24    10    30 1   
    25    11    12 ar  
    26    11    31 1   
    27    12    13 1   
    28    13    15 1   
    29    13    32 1   
    30    14    33 1   
    31    15    18 1   
    32    15    19 1   
    33    15    34 1   
    34    16    17 1   
    35    16    19 1   
    36    16    35 1   
    37    16    36 1   
    38    17    18 1   
    39    17    37 1   
    40    17    38 1   
    41    18    39 1   
    42    18    40 1   
    43    19    41 1   
@<TRIPOS>SUBSTRUCTURE
     1 D3W         1 TEMP              0 ****  ****    0 ROOT
