@<TRIPOS>MOLECULE
D3X
   57    58     1     0     0
SMALL
No Charge or Current Charge


@<TRIPOS>ATOM
      1 C1           3.1910     0.2470     0.1620 c6         1 D3X       0.362300
      2 N1          -4.0840    -0.2410    -3.1380 ns         1 D3X      -0.392400
      3 O1          -2.2200     0.5010    -4.2430 o          1 D3X      -0.562100
      4 S1          -1.4470     1.2610    -0.4630 sy         1 D3X       1.189600
      5 C2           3.4610    -0.9050     1.1800 c6         1 D3X       0.112300
      6 N2          -0.8200     0.0150    -1.4520 n3         1 D3X      -0.761500
      7 O2          -0.5380     1.3660     0.6820 o          1 D3X      -0.543000
      8 C3          -2.7050    -0.1100    -3.2960 c          1 D3X       0.573100
      9 O3          -1.7480     2.4000    -1.3360 o          1 D3X      -0.543000
     10 C4           6.6880     1.1820    -0.9030 c3         1 D3X       0.171600
     11 O4           2.3000    -1.1970     1.9950 oh         1 D3X      -0.720000
     12 C5           5.5250     0.8890     0.1030 c6         1 D3X       0.181300
     13 O5           4.9790    -1.5630     2.9950 oh         1 D3X      -0.667000
     14 C6           5.9110    -0.1990     1.1600 c6         1 D3X       0.141300
     15 O6           7.0220     0.2050     1.9820 oh         1 D3X      -0.719000
     16 C7           4.6780    -0.5110     2.0610 c6         1 D3X       0.139300
     17 O7          -6.5810    -1.0360     1.6070 os         1 D3X      -0.330100
     18 O8           4.3600     0.4560    -0.6510 os         1 D3X      -0.464000
     19 C9           0.3370     0.4260    -2.3040 c3         1 D3X       0.234800
     20 O9           6.3400     2.1520    -1.9150 oh         1 D3X      -0.712000
     21 C10         -1.8340    -0.8060    -2.2030 c3         1 D3X       0.129800
     22 O10          2.0790    -0.1000    -0.6760 os         1 D3X      -0.458000
     23 C11         -5.4130     0.5490     0.2660 ca         1 D3X      -0.203500
     24 O11         -4.9910     0.1040    -4.2130 oh         1 D3X      -0.408100
     25 C12         -2.9850     0.5640     0.1570 ca         1 D3X      -0.348500
     26 C13         -2.9400    -0.5160     1.0590 ca         1 D3X       0.032500
     27 C14         -4.2250     1.1060    -0.2320 ca         1 D3X       0.032500
     28 C15         -4.1340    -1.0680     1.5530 ca         1 D3X      -0.203500
     29 C16         -5.3770    -0.5350     1.1550 ca         1 D3X       0.203100
     30 C17         -6.6560    -2.1440     2.5220 c3         1 D3X       0.145900
     31 H1           2.9530     1.1710     0.7120 h2         1 D3X       0.039700
     32 HN1         -4.4540    -0.8670    -2.4230 hn         1 D3X       0.341500
     33 H2           3.7330    -1.7980     0.5960 h1         1 D3X       0.062700
     34 H4           7.5550     1.5370    -0.3310 h1         1 D3X       0.037200
     35 H4A          6.9760     0.2330    -1.3740 h1         1 D3X       0.037200
     36 HO4          1.5220    -1.1130     1.3900 ho         1 D3X       0.528000
     37 H5           5.2800     1.8280     0.6230 h1         1 D3X       0.059700
     38 HO5          4.0990    -1.9130     3.2680 ho         1 D3X       0.467000
     39 H6           6.1730    -1.1180     0.6130 h1         1 D3X       0.055700
     40 HO6          6.9840    -0.3920     2.7700 ho         1 D3X       0.526000
     41 H7           4.4120     0.4050     2.6110 h1         1 D3X       0.053700
     42 H8           2.3780     1.1660    -2.3200 h1         1 D3X       0.054200
     43 H8A          1.3890     1.8560    -1.0250 h1         1 D3X       0.054200
     44 H9           0.6540    -0.4250    -2.9210 h1         1 D3X       0.070700
     45 H9A          0.0280     1.2130    -3.0050 h1         1 D3X       0.070700
     46 HO9          7.1090     2.2140    -2.5290 ho         1 D3X       0.504000
     47 H10         -1.3270    -1.6310    -2.7200 h1         1 D3X       0.087200
     48 H10A        -2.5200    -1.3010    -1.5050 h1         1 D3X       0.087200
     49 HO11        -5.6570     0.6870    -3.7780 ho         1 D3X       0.436000
     50 H13         -1.9830    -0.9340     1.3720 ha         1 D3X       0.133500
     51 H14         -4.2760     1.9510    -0.9180 ha         1 D3X       0.133500
     52 H15         -4.0720    -1.9040     2.2430 ha         1 D3X       0.129500
     53 H17         -6.1930    -3.0400     2.0890 h1         1 D3X       0.047033
     54 H17A        -6.1490    -1.9050     3.4650 h1         1 D3X       0.047033
     55 H17B        -7.7030    -2.3790     2.7490 h1         1 D3X       0.047033
     56 C8           1.6110     0.9300    -1.5700 c3         1 D3X       0.146600
     57 H11         -6.3710     0.9630    -0.0370 ha         1 D3X       0.129500
@<TRIPOS>BOND
     1     1     5 1   
     2     1    18 1   
     3     1    22 1   
     4     1    31 1   
     5     2     8 1   
     6     2    24 1   
     7     2    32 1   
     8     3     8 2   
     9     4     6 1   
    10     4     7 2   
    11     4     9 2   
    12     4    25 1   
    13     5    11 1   
    14     5    16 1   
    15     5    33 1   
    16     6    19 1   
    17     6    21 1   
    18     8    21 1   
    19    10    12 1   
    20    10    20 1   
    21    10    34 1   
    22    10    35 1   
    23    11    36 1   
    24    12    14 1   
    25    12    18 1   
    26    12    37 1   
    27    13    16 1   
    28    13    38 1   
    29    14    15 1   
    30    14    16 1   
    31    14    39 1   
    32    15    40 1   
    33    16    41 1   
    34    17    29 1   
    35    17    30 1   
    36    19    44 1   
    37    19    45 1   
    38    19    56 1   
    39    20    46 1   
    40    21    47 1   
    41    21    48 1   
    42    22    56 1   
    43    23    27 ar  
    44    23    29 ar  
    45    23    57 1   
    46    24    49 1   
    47    25    26 ar  
    48    25    27 ar  
    49    26    28 ar  
    50    26    50 1   
    51    27    51 1   
    52    28    29 ar  
    53    28    52 1   
    54    30    53 1   
    55    30    54 1   
    56    30    55 1   
    57    42    56 1   
    58    43    56 1   
@<TRIPOS>SUBSTRUCTURE
     1 D3X         1 TEMP              0 ****  ****    0 ROOT
