@<TRIPOS>MOLECULE
D3X
   57    58     1     0     0
SMALL
abcg2


@<TRIPOS>ATOM
      1 C1           3.2250     0.5650    -0.1290 c6         1 D3X       0.362300
      2 N1          -2.8100    -2.4120    -1.4700 ns         1 D3X      -0.392400
      3 O1          -2.6690    -0.3570    -2.4050 o          1 D3X      -0.562100
      4 S1          -1.2980     0.6080     0.9290 sy         1 D3X       1.189600
      5 C2           3.4420    -0.7740     0.5710 c6         1 D3X       0.112300
      6 N2          -0.6250     0.2210    -0.5200 n3         1 D3X      -0.761500
      7 O2          -0.8870    -0.4090     1.8880 o          1 D3X      -0.543000
      8 C3          -2.2040    -1.2410    -1.7140 c          1 D3X       0.573100
      9 O3          -0.9730     2.0030     1.1770 o          1 D3X      -0.543000
     10 C4           6.5680     1.4110    -1.3370 c3         1 D3X       0.171600
     11 O4           2.4350    -1.0230     1.5190 oh         1 D3X      -0.720000
     12 C5           5.5300     0.9950    -0.3180 c6         1 D3X       0.181300
     13 O5           5.1180    -1.9960     1.8460 oh         1 D3X      -0.667000
     14 C6           5.8960    -0.3250     0.3650 c6         1 D3X       0.141300
     15 O6           7.1030    -0.1420     1.0610 oh         1 D3X      -0.719000
     16 C7           4.7720    -0.7410     1.3080 c6         1 D3X       0.139300
     17 O7          -7.0570     0.1280    -0.0710 os         1 D3X      -0.330100
     18 O8           4.2950     0.8520    -0.9890 os         1 D3X      -0.464000
     19 C9          -0.0980     1.2500    -1.4110 c3         1 D3X       0.234800
     20 O9           6.2120     2.6680    -1.8610 oh         1 D3X      -0.712000
     21 C10         -0.8450    -1.1140    -1.0290 c3         1 D3X       0.129800
     22 O10          2.0750     0.4710    -0.8810 os         1 D3X      -0.458000
     23 C11         -5.0850     1.3510    -0.1510 ca         1 D3X      -0.203500
     24 O11         -4.0180    -2.6940    -2.0230 oh         1 D3X      -0.408100
     25 C12         -3.0390     0.4570     0.7180 ca         1 D3X      -0.348500
     26 C13         -3.6920    -0.7050     1.0940 ca         1 D3X       0.032500
     27 C14         -3.7390     1.4880     0.0930 ca         1 D3X       0.032500
     28 C15         -5.0490    -0.8550     0.8380 ca         1 D3X      -0.203500
     29 C16         -5.7540     0.1750     0.2130 ca         1 D3X       0.203100
     30 C17         -7.7890    -1.0430     0.2500 c3         1 D3X       0.145900
     31 H1           3.1310     1.3620     0.6340 h2         1 D3X       0.039700
     32 HN1         -2.4220    -3.1300    -0.8760 hn         1 D3X       0.341500
     33 H2           3.4790    -1.5610    -0.1990 h1         1 D3X       0.062700
     34 H4           7.5450     1.4400    -0.8440 h1         1 D3X       0.037200
     35 H4A          6.6250     0.6420    -2.1210 h1         1 D3X       0.037200
     36 HO4          1.5790    -1.0180     1.0790 ho         1 D3X       0.528000
     37 H5           5.4510     1.7780     0.4550 h1         1 D3X       0.059700
     38 HO5          4.5330    -2.1850     2.5870 ho         1 D3X       0.467000
     39 H6           6.0010    -1.0990    -0.4130 h1         1 D3X       0.055700
     40 HO6          7.2900    -0.9510     1.5490 ho         1 D3X       0.526000
     41 H7           4.7030     0.0180     2.1050 h1         1 D3X       0.053700
     42 H8           1.7250     2.2870    -1.8390 h1         1 D3X       0.054200
     43 H8A          1.3220     2.2390    -0.1200 h1         1 D3X       0.054200
     44 H9          -0.1220     0.8360    -2.4180 h1         1 D3X       0.070700
     45 H9A         -0.7330     2.1370    -1.4370 h1         1 D3X       0.070700
     46 HO9          6.8960     2.9330    -2.4820 ho         1 D3X       0.504000
     47 H10         -0.0680    -1.3270    -1.7640 h1         1 D3X       0.087200
     48 H10A        -0.7150    -1.8530    -0.2370 h1         1 D3X       0.087200
     49 HO11        -4.6810    -2.3430    -1.4090 ho         1 D3X       0.436000
     50 H13         -3.1620    -1.5050     1.5910 ha         1 D3X       0.133500
     51 H14         -3.2390     2.4000    -0.2050 ha         1 D3X       0.133500
     52 H15         -5.5370    -1.7640     1.1620 ha         1 D3X       0.129500
     53 H17         -7.4020    -1.9190    -0.2770 h1         1 D3X       0.047033
     54 H17A        -7.7850    -1.2420     1.3230 h1         1 D3X       0.047033
     55 H17B        -8.8110    -0.8640    -0.0730 h1         1 D3X       0.047033
     56 C8           1.3170     1.6530    -1.0440 c3         1 D3X       0.146600
     57 H11         -5.6360     2.1510    -0.6300 ha         1 D3X       0.129500
@<TRIPOS>BOND
     1     1     5 1   
     2     1    18 1   
     3     1    22 1   
     4     1    31 1   
     5     2     8 1   
     6     2    24 1   
     7     2    32 1   
     8     3     8 2   
     9     4     6 1   
    10     4     7 2   
    11     4     9 2   
    12     4    25 1   
    13     5    11 1   
    14     5    16 1   
    15     5    33 1   
    16     6    19 1   
    17     6    21 1   
    18     8    21 1   
    19    10    12 1   
    20    10    20 1   
    21    10    34 1   
    22    10    35 1   
    23    11    36 1   
    24    12    14 1   
    25    12    18 1   
    26    12    37 1   
    27    13    16 1   
    28    13    38 1   
    29    14    15 1   
    30    14    16 1   
    31    14    39 1   
    32    15    40 1   
    33    16    41 1   
    34    17    29 1   
    35    17    30 1   
    36    19    44 1   
    37    19    45 1   
    38    19    56 1   
    39    20    46 1   
    40    21    47 1   
    41    21    48 1   
    42    22    56 1   
    43    23    27 ar  
    44    23    29 ar  
    45    23    57 1   
    46    24    49 1   
    47    25    26 ar  
    48    25    27 ar  
    49    26    28 ar  
    50    26    50 1   
    51    27    51 1   
    52    28    29 ar  
    53    28    52 1   
    54    30    53 1   
    55    30    54 1   
    56    30    55 1   
    57    42    56 1   
    58    43    56 1   
@<TRIPOS>SUBSTRUCTURE
     1 D3X         1 TEMP              0 ****  ****    0 ROOT
