@<TRIPOS>MOLECULE
D3Y
   54    57     1     0     0
SMALL
No Charge or Current Charge


@<TRIPOS>ATOM
      1 CD1         -5.4820     1.3680     0.9140 ca         1 D3Y      -0.069000
      2 CE1         -6.8080     1.6280     1.3040 ca         1 D3Y      -0.173000
      3 CZ          -7.8470     1.5290     0.3660 ca         1 D3Y       0.142100
      4 OH          -9.1350     1.7800     0.7350 oh         1 D3Y      -0.532100
      5 CE2         -7.5630     1.1720    -0.9600 ca         1 D3Y      -0.173000
      6 CD2         -6.2380     0.9120    -1.3530 ca         1 D3Y      -0.069000
      7 CG          -5.1900     1.0050    -0.4160 ca         1 D3Y      -0.129300
      8 CB          -3.7470     0.7260    -0.8360 c3         1 D3Y      -0.066100
      9 CA          -3.1630    -0.5730    -0.2220 c3         1 D3Y       0.093500
     10 N           -4.0540    -1.7400    -0.5400 n8         1 D3Y      -0.988200
     11 C           -1.6500    -0.7470    -0.6140 c          1 D3Y       0.611100
     12 O           -1.2840    -0.9350    -1.7700 o          1 D3Y      -0.603100
     13 N8          -0.7630    -0.6940     0.4450 ns         1 D3Y      -0.490900
     14 C3           0.6860    -0.8010     0.1820 c5         1 D3Y       0.079700
     15 C2           1.4110    -0.0200     1.3350 c5         1 D3Y       0.126300
     16 O2           0.6470     0.0120     2.5660 oh         1 D3Y      -0.729000
     17 C4           1.1070    -2.2540     0.5240 c5         1 D3Y       0.146300
     18 C5           0.8330    -3.3090    -0.5860 c3         1 D3Y       0.167600
     19 O5           1.1570    -4.6410    -0.1390 oh         1 D3Y      -0.714000
     20 O4           2.5270    -2.0990     0.7380 os         1 D3Y      -0.436000
     21 C1           2.7380    -0.8680     1.4710 c5         1 D3Y       0.273300
     22 N9           3.9720    -0.2400     0.9980 na         1 D3Y      -0.284300
     23 C8           5.1520    -0.1550     1.7430 cc         1 D3Y       0.435700
     24 N7           6.1250     0.4770     1.0570 nd         1 D3Y      -0.558100
     25 C10          5.5100     0.7850    -0.1600 ca         1 D3Y      -0.091600
     26 C9           4.2080     0.3540    -0.2130 ca         1 D3Y       0.115500
     27 N3           3.4350     0.5440    -1.3000 nb         1 D3Y      -0.268000
     28 C7           4.0240     1.1840    -2.3390 ca         1 D3Y       0.195900
     29 N1           5.2960     1.6470    -2.3890 nb         1 D3Y      -0.304000
     30 C6           6.0380     1.4470    -1.2890 ca         1 D3Y       0.458900
     31 N6           7.3170     1.9070    -1.3370 nv         1 D3Y      -1.057900
     32 H1          -4.6810     1.4500     1.6470 ha         1 D3Y       0.113500
     33 H2          -7.0180     1.9070     2.3340 ha         1 D3Y       0.123000
     34 H3          -9.1440     2.0130     1.6880 ho         1 D3Y       0.466000
     35 H4          -8.3680     1.0970    -1.6860 ha         1 D3Y       0.123000
     36 H5          -6.0300     0.6370    -2.3850 ha         1 D3Y       0.113500
     37 H6          -3.6700     0.6720    -1.9300 hc         1 D3Y       0.062700
     38 H7          -3.1130     1.5700    -0.5360 hc         1 D3Y       0.062700
     39 H8          -3.1870    -0.4480     0.8700 h1         1 D3Y       0.066700
     40 H9          -5.0280    -1.4520    -0.3830 hn         1 D3Y       0.410500
     41 H10         -4.0210    -1.9160    -1.5520 hn         1 D3Y       0.410500
     42 H12         -1.1310    -0.5170     1.3730 hn         1 D3Y       0.331500
     43 H13          1.0070    -0.4840    -0.8200 h1         1 D3Y       0.095700
     44 H14          1.6310     1.0070     1.0090 h1         1 D3Y       0.064700
     45 H15          1.0530     0.6960     3.1530 ho         1 D3Y       0.557000
     46 H16          0.6420    -2.5910     1.4620 h1         1 D3Y       0.066700
     47 H17         -0.2280    -3.2580    -0.8620 h1         1 D3Y       0.042200
     48 H18          1.4190    -3.0440    -1.4780 h1         1 D3Y       0.042200
     49 H19          1.0230    -5.2440    -0.9080 ho         1 D3Y       0.509000
     50 H20          2.9060    -1.1060     2.5290 h2         1 D3Y       0.074700
     51 H21          5.2360    -0.5580     2.7460 h5         1 D3Y       0.085800
     52 H22          3.4120     1.3430    -3.2250 h5         1 D3Y       0.047100
     53 H23          7.9480     1.5680    -0.6150 hn         1 D3Y       0.509500
     54 H24          7.7270     2.0900    -2.2490 hn         1 D3Y       0.509500
@<TRIPOS>BOND
     1     1     2 ar  
     2     1     7 ar  
     3     1    32 1   
     4     2     3 ar  
     5     2    33 1   
     6     3     4 1   
     7     3     5 ar  
     8     4    34 1   
     9     5     6 ar  
    10     5    35 1   
    11     6     7 ar  
    12     6    36 1   
    13     7     8 1   
    14     8     9 1   
    15     8    37 1   
    16     8    38 1   
    17     9    10 1   
    18     9    11 1   
    19     9    39 1   
    20    10    40 1   
    21    10    41 1   
    22    11    12 2   
    23    11    13 1   
    24    13    14 1   
    25    13    42 1   
    26    14    15 1   
    27    14    17 1   
    28    14    43 1   
    29    15    16 1   
    30    15    21 1   
    31    15    44 1   
    32    16    45 1   
    33    17    18 1   
    34    17    20 1   
    35    17    46 1   
    36    18    19 1   
    37    18    47 1   
    38    18    48 1   
    39    19    49 1   
    40    20    21 1   
    41    21    22 1   
    42    21    50 1   
    43    22    23 1   
    44    22    26 1   
    45    23    24 2   
    46    23    51 1   
    47    24    25 1   
    48    25    26 ar  
    49    25    30 ar  
    50    26    27 ar  
    51    27    28 ar  
    52    28    29 ar  
    53    28    52 1   
    54    29    30 ar  
    55    30    31 1   
    56    31    53 1   
    57    31    54 1   
@<TRIPOS>SUBSTRUCTURE
     1 D3Y         1 TEMP              0 ****  ****    0 ROOT
