@<TRIPOS>MOLECULE
D3Y
   54    57     1     0     0
SMALL
abcg2


@<TRIPOS>ATOM
      1 CD1         -4.9850     1.8300     0.5930 ca         1 D3Y      -0.069000
      2 CE1         -6.1670     2.4270     1.0040 ca         1 D3Y      -0.173000
      3 CZ          -7.3590     2.1370     0.3430 ca         1 D3Y       0.142100
      4 OH          -8.5400     2.6850     0.6950 oh         1 D3Y      -0.532100
      5 CE2         -7.3460     1.2500    -0.7290 ca         1 D3Y      -0.173000
      6 CD2         -6.1540     0.6620    -1.1250 ca         1 D3Y      -0.069000
      7 CG          -4.9510     0.9400    -0.4770 ca         1 D3Y      -0.129300
      8 CB          -3.6750     0.2590    -0.8770 c3         1 D3Y      -0.066100
      9 CA          -3.3950    -0.9970    -0.0160 c3         1 D3Y       0.093500
     10 N           -4.4190    -2.0170    -0.0530 n8         1 D3Y      -0.988200
     11 C           -2.0820    -1.5990    -0.4940 c          1 D3Y       0.611100
     12 O           -2.0440    -2.3960    -1.4180 o          1 D3Y      -0.603100
     13 N8          -0.9870    -1.1430     0.1410 ns         1 D3Y      -0.490900
     14 C3           0.3520    -1.4770    -0.2480 c5         1 D3Y       0.079700
     15 C2           1.3360    -0.2810    -0.1820 c5         1 D3Y       0.126300
     16 O2           0.7450     0.8540     0.3690 oh         1 D3Y      -0.729000
     17 C4           1.0040    -2.5400     0.6530 c5         1 D3Y       0.146300
     18 C5           0.7640    -3.9540     0.1900 c3         1 D3Y       0.167600
     19 O5           1.3430    -4.8430     1.1120 oh         1 D3Y      -0.714000
     20 O4           2.3900    -2.2360     0.6060 os         1 D3Y      -0.436000
     21 C1           2.4740    -0.8530     0.6940 c5         1 D3Y       0.273300
     22 N9           3.7880    -0.4410     0.2550 na         1 D3Y      -0.284300
     23 C8           4.9010    -1.1960     0.0050 cc         1 D3Y       0.435700
     24 N7           5.9400    -0.4820    -0.3220 nd         1 D3Y      -0.558100
     25 C10          5.4940     0.8120    -0.2800 ca         1 D3Y      -0.091600
     26 C9           4.1590     0.8560     0.0780 ca         1 D3Y       0.115500
     27 N3           3.4040     1.9500     0.2110 nb         1 D3Y      -0.268000
     28 C7           4.0900     3.0530    -0.0400 ca         1 D3Y       0.195900
     29 N1           5.3660     3.1610    -0.3900 nb         1 D3Y      -0.304000
     30 C6           6.1100     2.0550    -0.5260 ca         1 D3Y       0.458900
     31 N6           7.3880     2.1690    -0.8800 nv         1 D3Y      -1.057900
     32 H1          -4.0680     2.0720     1.1190 ha         1 D3Y       0.113500
     33 H2          -6.1580     3.1210     1.8370 ha         1 D3Y       0.123000
     34 H3          -8.4270     3.2740     1.4490 ho         1 D3Y       0.466000
     35 H4          -8.2670     1.0240    -1.2520 ha         1 D3Y       0.123000
     36 H5          -6.1630    -0.0220    -1.9650 ha         1 D3Y       0.113500
     37 H6          -3.7260    -0.0420    -1.9270 hc         1 D3Y       0.062700
     38 H7          -2.8350     0.9530    -0.7860 hc         1 D3Y       0.062700
     39 H8          -3.2870    -0.6740     1.0240 h1         1 D3Y       0.066700
     40 H9          -5.2850    -1.6420     0.3140 hn         1 D3Y       0.410500
     41 H10         -4.6070    -2.2870    -1.0110 hn         1 D3Y       0.410500
     42 H12         -1.1070    -0.4950     0.9030 hn         1 D3Y       0.331500
     43 H13          0.3190    -1.8480    -1.2730 h1         1 D3Y       0.095700
     44 H14          1.7240    -0.0860    -1.1890 h1         1 D3Y       0.064700
     45 H15          1.4430     1.5340     0.3960 ho         1 D3Y       0.557000
     46 H16          0.6320    -2.4190     1.6810 h1         1 D3Y       0.066700
     47 H17         -0.3200    -4.0940     0.1070 h1         1 D3Y       0.042200
     48 H18          1.1800    -4.0740    -0.8200 h1         1 D3Y       0.042200
     49 H19          1.1440    -5.7400     0.8290 ho         1 D3Y       0.509000
     50 H20          2.3280    -0.5090     1.7290 h2         1 D3Y       0.074700
     51 H21          4.8880    -2.2720     0.0780 h5         1 D3Y       0.085800
     52 H22          3.5450     3.9860     0.0490 h5         1 D3Y       0.047100
     53 H23          7.9620     1.3570    -1.0210 hn         1 D3Y       0.509500
     54 H24          7.7850     3.0740    -1.0670 hn         1 D3Y       0.509500
@<TRIPOS>BOND
     1     1     2 ar  
     2     1     7 ar  
     3     1    32 1   
     4     2     3 ar  
     5     2    33 1   
     6     3     4 1   
     7     3     5 ar  
     8     4    34 1   
     9     5     6 ar  
    10     5    35 1   
    11     6     7 ar  
    12     6    36 1   
    13     7     8 1   
    14     8     9 1   
    15     8    37 1   
    16     8    38 1   
    17     9    10 1   
    18     9    11 1   
    19     9    39 1   
    20    10    40 1   
    21    10    41 1   
    22    11    12 2   
    23    11    13 1   
    24    13    14 1   
    25    13    42 1   
    26    14    15 1   
    27    14    17 1   
    28    14    43 1   
    29    15    16 1   
    30    15    21 1   
    31    15    44 1   
    32    16    45 1   
    33    17    18 1   
    34    17    20 1   
    35    17    46 1   
    36    18    19 1   
    37    18    47 1   
    38    18    48 1   
    39    19    49 1   
    40    20    21 1   
    41    21    22 1   
    42    21    50 1   
    43    22    23 1   
    44    22    26 1   
    45    23    24 2   
    46    23    51 1   
    47    24    25 1   
    48    25    26 ar  
    49    25    30 ar  
    50    26    27 ar  
    51    27    28 ar  
    52    28    29 ar  
    53    28    52 1   
    54    29    30 ar  
    55    30    31 1   
    56    31    53 1   
    57    31    54 1   
@<TRIPOS>SUBSTRUCTURE
     1 D3Y         1 TEMP              0 ****  ****    0 ROOT
