@<TRIPOS>MOLECULE
D3Z
   28    29     1     0     0
SMALL
bcc


@<TRIPOS>ATOM
      1 N1           0.6060     0.1810    -0.5150 n          1 D3Z      -0.400000
      2 C2           0.8800    -1.0480     0.0550 c          1 D3Z       0.847500
      3 N3           2.1280    -1.1260     0.6390 ns         1 D3Z      -0.611500
      4 C4           3.1300    -0.1750     0.6900 c          1 D3Z       0.732700
      5 C5           2.7750     1.0520     0.0240 cc         1 D3Z      -0.327200
      6 C6           1.5580     1.1620    -0.5290 cd         1 D3Z       0.041600
      7 O2           0.1440    -2.0060     0.0560 o          1 D3Z      -0.613500
      8 O4           4.1870    -0.4090     1.2480 o          1 D3Z      -0.608500
      9 C1          -0.7040     0.6050    -1.0870 c5         1 D3Z       0.338500
     10 C7          -1.4530     1.5370    -0.1200 c5         1 D3Z       0.091100
     11 O1          -2.1780     2.4290    -0.9240 oh         1 D3Z      -0.587800
     12 C3          -2.3670     0.5530     0.6040 c5         1 D3Z       0.082100
     13 C8          -2.7200    -0.4020    -0.5360 c5         1 D3Z       0.117100
     14 O3          -1.6170    -0.0230     1.6410 oh         1 D3Z      -0.583800
     15 O5          -1.5520    -0.4380    -1.3730 os         1 D3Z      -0.363600
     16 C9          -3.1440    -1.7960    -0.1390 c3         1 D3Z      -0.101100
     17 HN3          2.3320    -2.0220     1.0650 hn         1 D3Z       0.337500
     18 H5           3.4820     1.8660    -0.0280 ha         1 D3Z       0.171000
     19 H6           1.2690     2.0730    -1.0370 h4         1 D3Z       0.150000
     20 H1          -0.4410     1.1360    -2.0080 h2         1 D3Z       0.092700
     21 H2          -0.7790     2.0570     0.5710 h1         1 D3Z       0.077700
     22 HO2         -2.7390     2.9690    -0.3580 ho         1 D3Z       0.418000
     23 H3          -3.2730     1.0420     0.9850 h1         1 D3Z       0.050700
     24 H4          -3.5310     0.0600    -1.1100 h1         1 D3Z       0.059700
     25 HO3         -2.1130    -0.7570     2.0180 ho         1 D3Z       0.423000
     26 H7          -4.0550    -1.7420     0.4600 hc         1 D3Z       0.055033
     27 H5'A        -3.3750    -2.3940    -1.0200 hc         1 D3Z       0.055033
     28 H5'B        -2.3780    -2.3190     0.4300 hc         1 D3Z       0.055033
@<TRIPOS>BOND
     1     1     2 1   
     2     1     6 1   
     3     1     9 1   
     4     2     3 1   
     5     2     7 2   
     6     3     4 1   
     7     3    17 1   
     8     4     5 1   
     9     4     8 2   
    10     5     6 2   
    11     5    18 1   
    12     6    19 1   
    13     9    10 1   
    14     9    15 1   
    15     9    20 1   
    16    10    11 1   
    17    10    12 1   
    18    10    21 1   
    19    11    22 1   
    20    12    13 1   
    21    12    14 1   
    22    12    23 1   
    23    13    15 1   
    24    13    16 1   
    25    13    24 1   
    26    14    25 1   
    27    16    26 1   
    28    16    27 1   
    29    16    28 1   
@<TRIPOS>SUBSTRUCTURE
     1 D3Z         1 TEMP              0 ****  ****    0 ROOT
