@<TRIPOS>MOLECULE
D3Z
   28    29     1     0     0
SMALL
No Charge or Current Charge


@<TRIPOS>ATOM
      1 N1           0.7410     0.2370    -0.4200 n          1 D3Z      -0.333000
      2 C2           1.1430    -0.9090     0.3190 c          1 D3Z       0.638000
      3 N3           2.4460    -0.9320     0.7150 ns         1 D3Z      -0.477500
      4 C4           3.4130    -0.0080     0.4980 c          1 D3Z       0.590200
      5 C5           2.9520     1.1450    -0.2650 cc         1 D3Z      -0.377200
      6 C6           1.6550     1.2530    -0.7060 cd         1 D3Z      -0.008400
      7 O2           0.4250    -1.8480     0.6140 o          1 D3Z      -0.538000
      8 O4           4.5510    -0.1470     0.9090 o          1 D3Z      -0.533000
      9 C1          -0.6580     0.4140    -0.9220 c5         1 D3Z       0.361700
     10 C7          -1.4230     1.3870     0.0660 c5         1 D3Z       0.114300
     11 O1          -2.0100     2.4990    -0.6440 oh         1 D3Z      -0.710000
     12 C3          -2.5290     0.4430     0.6510 c5         1 D3Z       0.105300
     13 C8          -2.7680    -0.4740    -0.5970 c5         1 D3Z       0.140300
     14 O3          -2.0720    -0.2700     1.8150 oh         1 D3Z      -0.706000
     15 O5          -1.4370    -0.7970    -1.0330 os         1 D3Z      -0.410000
     16 C9          -3.5730    -1.7700    -0.3630 c3         1 D3Z      -0.101100
     17 HN3          2.7270    -1.7440     1.2390 hn         1 D3Z       0.337500
     18 H5           3.6960     1.9090    -0.4620 ha         1 D3Z       0.221000
     19 H6           1.2580     2.0920    -1.2760 h4         1 D3Z       0.200000
     20 H1          -0.5740     0.8810    -1.9110 h2         1 D3Z       0.092700
     21 H2          -0.7590     1.7530     0.8630 h1         1 D3Z       0.077700
     22 HO2         -2.3570     3.1300     0.0310 ho         1 D3Z       0.517000
     23 H3          -3.4410     1.0040     0.8990 h1         1 D3Z       0.050700
     24 H4          -3.2660     0.0970    -1.3940 h1         1 D3Z       0.059700
     25 HO3         -2.7290    -0.9780     2.0050 ho         1 D3Z       0.522000
     26 H7          -4.5630    -1.5480     0.0530 hc         1 D3Z       0.055033
     27 H5'A        -3.7230    -2.3070    -1.3070 hc         1 D3Z       0.055033
     28 H5'B        -3.0570    -2.4490     0.3260 hc         1 D3Z       0.055033
@<TRIPOS>BOND
     1     1     2 1   
     2     1     6 1   
     3     1     9 1   
     4     2     3 1   
     5     2     7 2   
     6     3     4 1   
     7     3    17 1   
     8     4     5 1   
     9     4     8 2   
    10     5     6 2   
    11     5    18 1   
    12     6    19 1   
    13     9    10 1   
    14     9    15 1   
    15     9    20 1   
    16    10    11 1   
    17    10    12 1   
    18    10    21 1   
    19    11    22 1   
    20    12    13 1   
    21    12    14 1   
    22    12    23 1   
    23    13    15 1   
    24    13    16 1   
    25    13    24 1   
    26    14    25 1   
    27    16    26 1   
    28    16    27 1   
    29    16    28 1   
@<TRIPOS>SUBSTRUCTURE
     1 D3Z         1 TEMP              0 ****  ****    0 ROOT
