@<TRIPOS>MOLECULE
D40
   51    54     1     0     0
SMALL
No Charge or Current Charge


@<TRIPOS>ATOM
      1 C22        -17.0420    16.9840    -1.7410 ca         1 D40      -0.075300
      2 C27        -16.3520    18.1980    -1.9440 ca         1 D40      -0.092000
      3 C26        -16.6920    19.3530    -1.2200 ca         1 D40      -0.114500
      4 C25        -17.7340    19.3140    -0.2820 ca         1 D40      -0.108000
      5 C24        -18.4350    18.1170    -0.0690 ca         1 D40      -0.114500
      6 C23        -18.0940    16.9610    -0.7920 ca         1 D40      -0.092000
      7 C20        -20.7890    15.8650    -5.4140 c3         1 D40      -0.109100
      8 C19        -20.0160    18.1370    -4.5960 c3         1 D40      -0.109100
      9 C18        -21.4080    16.7000    -3.0430 c3         1 D40      -0.109100
     10 C17        -20.3500    16.6890    -4.1760 c3         1 D40       0.225000
     11 C1         -15.8670    15.2210     2.0270 ca         1 D40      -0.141000
     12 C2         -14.6200    15.8300     2.3010 ca         1 D40      -0.073000
     13 C3         -13.7300    16.1260     1.2500 ca         1 D40      -0.144000
     14 C4         -14.1300    15.8050    -0.0510 ca         1 D40      -0.029000
     15 C5         -15.3490    15.2200    -0.3400 ca         1 D40      -0.125300
     16 C13        -15.6730    13.5060    -2.1900 c5         1 D40      -0.079400
     17 C12        -17.2220    13.3730    -2.1770 c5         1 D40       0.115000
     18 C6         -16.2400    14.9060     0.7020 ca         1 D40      -0.048000
     19 C8         -14.0640    15.5410    -2.3980 c          1 D40       0.573000
     20 C10        -16.6240    15.7520    -2.5750 c5         1 D40       0.196000
     21 C9         -15.4390    15.0110    -1.8660 c5         1 D40      -0.102700
     22 N7         -13.4390    15.9730    -1.2470 ns         1 D40      -0.140000
     23 N11        -17.6800    14.7090    -2.6170 n          1 D40      -0.412800
     24 O15        -19.8250    14.0440    -3.1410 o          1 D40      -0.547000
     25 O16        -19.1010    16.1760    -3.6650 os         1 D40      -0.467100
     26 H1         -15.5440    18.2470    -2.6710 ha         1 D40       0.117000
     27 H2         -16.1480    20.2800    -1.3890 ha         1 D40       0.111500
     28 H3         -17.9990    20.2080     0.2790 ha         1 D40       0.111000
     29 H4         -19.2440    18.0820     0.6570 ha         1 D40       0.111500
     30 H5         -18.6520    16.0480    -0.6060 ha         1 D40       0.117000
     31 H6         -21.1680    14.8760    -5.1350 hc         1 D40       0.049478
     32 H7         -21.5940    16.3810    -5.9500 hc         1 D40       0.049478
     33 H8         -19.9510    15.7320    -6.1100 hc         1 D40       0.049478
     34 H9         -19.6510    18.7160    -3.7380 hc         1 D40       0.049478
     35 H10        -19.2380    18.1500    -5.3690 hc         1 D40       0.049478
     36 H11        -20.9020    18.6430    -4.9960 hc         1 D40       0.049478
     37 H12        -20.9980    17.1540    -2.1330 hc         1 D40       0.049478
     38 H13        -22.2860    17.2830    -3.3460 hc         1 D40       0.049478
     39 H14        -21.7570    15.6910    -2.7990 hc         1 D40       0.049478
     40 H15        -16.5470    14.9930     2.8450 ha         1 D40       0.118000
     41 H16        -14.3460    16.0660     3.3270 ha         1 D40       0.115000
     42 H17        -12.7640    16.5860     1.4450 ha         1 D40       0.121000
     43 H18        -15.1830    12.8260    -1.4840 hc         1 D40       0.069700
     44 H19        -15.2900    13.2610    -3.1880 hc         1 D40       0.069700
     45 H20        -17.6070    13.1390    -1.1770 h1         1 D40       0.058700
     46 H21        -17.5590    12.5790    -2.8560 h1         1 D40       0.058700
     47 H22        -17.2020    14.4430     0.5060 ha         1 D40       0.123000
     48 H23        -16.3580    16.0470    -3.6000 h1         1 D40       0.076700
     49 H24        -12.5130    16.3770    -1.2690 hn         1 D40       0.175000
     50 O21        -13.6180    15.5970    -3.5370 o          1 D40      -0.528000
     51 C14        -18.9680    14.9150    -3.1370 c          1 D40       0.655100
@<TRIPOS>BOND
     1     1     2 ar  
     2     1     6 ar  
     3     1    20 1   
     4     2     3 ar  
     5     2    26 1   
     6     3     4 ar  
     7     3    27 1   
     8     4     5 ar  
     9     4    28 1   
    10     5     6 ar  
    11     5    29 1   
    12     6    30 1   
    13     7    10 1   
    14     7    31 1   
    15     7    32 1   
    16     7    33 1   
    17     8    10 1   
    18     8    34 1   
    19     8    35 1   
    20     8    36 1   
    21     9    10 1   
    22     9    37 1   
    23     9    38 1   
    24     9    39 1   
    25    10    25 1   
    26    11    12 ar  
    27    11    18 ar  
    28    11    40 1   
    29    12    13 ar  
    30    12    41 1   
    31    13    14 ar  
    32    13    42 1   
    33    14    15 ar  
    34    14    22 1   
    35    15    18 ar  
    36    15    21 1   
    37    16    17 1   
    38    16    21 1   
    39    16    43 1   
    40    16    44 1   
    41    17    23 1   
    42    17    45 1   
    43    17    46 1   
    44    18    47 1   
    45    19    21 1   
    46    19    22 1   
    47    19    50 2   
    48    20    21 1   
    49    20    23 1   
    50    20    48 1   
    51    22    49 1   
    52    23    51 1   
    53    24    51 2   
    54    25    51 1   
@<TRIPOS>SUBSTRUCTURE
     1 D40         1 TEMP              0 ****  ****    0 ROOT
