@<TRIPOS>MOLECULE
D40
   51    54     1     0     0
SMALL
bcc


@<TRIPOS>ATOM
      1 C22        -17.0560    17.0320    -1.8510 ca         1 D40      -0.075300
      2 C27        -16.4040    18.1980    -2.2360 ca         1 D40      -0.110000
      3 C26        -16.7040    19.4130    -1.6330 ca         1 D40      -0.132500
      4 C25        -17.6720    19.4750    -0.6420 ca         1 D40      -0.126000
      5 C24        -18.3320    18.3140    -0.2570 ca         1 D40      -0.132500
      6 C23        -18.0240    17.1030    -0.8560 ca         1 D40      -0.110000
      7 C20        -20.7920    15.9570    -5.3100 c3         1 D40      -0.109100
      8 C19        -19.9280    18.0890    -4.3350 c3         1 D40      -0.109100
      9 C18        -21.3190    16.5810    -2.9220 c3         1 D40      -0.109100
     10 C17        -20.2890    16.6380    -4.0430 c3         1 D40       0.201800
     11 C1         -15.9800    15.0300     2.0310 ca         1 D40      -0.159000
     12 C2         -14.7850    15.6590     2.3520 ca         1 D40      -0.091000
     13 C3         -13.8890    16.0480     1.3590 ca         1 D40      -0.162000
     14 C4         -14.2390    15.7880     0.0480 ca         1 D40       0.063600
     15 C5         -15.4370    15.1650    -0.2960 ca         1 D40      -0.125300
     16 C13        -15.6510    13.5760    -2.2720 c5         1 D40      -0.079400
     17 C12        -17.1590    13.3700    -2.2490 c5         1 D40       0.115000
     18 C6         -16.3110    14.7790     0.7010 ca         1 D40      -0.066000
     19 C8         -14.1440    15.6360    -2.2230 c          1 D40       0.715500
     20 C10        -16.6570    15.7360    -2.5090 c5         1 D40       0.196000
     21 C9         -15.4790    15.0220    -1.7920 c5         1 D40      -0.102700
     22 N7         -13.5100    16.0600    -1.1040 ns         1 D40      -0.466100
     23 N11        -17.6810    14.7000    -2.5340 n          1 D40      -0.479800
     24 O15        -19.7210    13.9630    -3.1750 o          1 D40      -0.596000
     25 O16        -19.0230    16.0710    -3.6220 os         1 D40      -0.443900
     26 H1         -15.6620    18.1630    -3.0260 ha         1 D40       0.135000
     27 H2         -16.1880    20.3110    -1.9470 ha         1 D40       0.129500
     28 H3         -17.9150    20.4210    -0.1740 ha         1 D40       0.129000
     29 H4         -19.0930    18.3510     0.5120 ha         1 D40       0.129500
     30 H5         -18.5520    16.2110    -0.5450 ha         1 D40       0.135000
     31 H6         -21.0850    14.9240    -5.1360 hc         1 D40       0.049478
     32 H7         -21.6650    16.4960    -5.6810 hc         1 D40       0.049478
     33 H8         -20.0330    15.9770    -6.0930 hc         1 D40       0.049478
     34 H9         -19.5390    18.5830    -3.4440 hc         1 D40       0.049478
     35 H10        -19.1740    18.1610    -5.1200 hc         1 D40       0.049478
     36 H11        -20.8130    18.6320    -4.6690 hc         1 D40       0.049478
     37 H12        -20.9350    17.0500    -2.0150 hc         1 D40       0.049478
     38 H13        -22.2080    17.1330    -3.2300 hc         1 D40       0.049478
     39 H14        -21.6270    15.5650    -2.6850 hc         1 D40       0.049478
     40 H15        -16.6600    14.7320     2.8180 ha         1 D40       0.136000
     41 H16        -14.5370    15.8480     3.3880 ha         1 D40       0.133000
     42 H17        -12.9540    16.5310     1.6100 ha         1 D40       0.139000
     43 H18        -15.1140    12.8600    -1.6520 hc         1 D40       0.069700
     44 H19        -15.2790    13.4870    -3.2950 hc         1 D40       0.069700
     45 H20        -17.5060    13.0070    -1.2780 h1         1 D40       0.058700
     46 H21        -17.4790    12.6490    -3.0010 h1         1 D40       0.058700
     47 H22        -17.2470    14.2900     0.4660 ha         1 D40       0.141000
     48 H23        -16.3240    15.9570    -3.5310 h1         1 D40       0.076700
     49 H24        -12.6020    16.5010    -1.1140 hn         1 D40       0.341500
     50 O21        -13.7350    15.7310    -3.3610 o          1 D40      -0.603500
     51 C14        -18.8920    14.8510    -3.1230 c          1 D40       0.771100
@<TRIPOS>BOND
     1     1     2 ar  
     2     1     6 ar  
     3     1    20 1   
     4     2     3 ar  
     5     2    26 1   
     6     3     4 ar  
     7     3    27 1   
     8     4     5 ar  
     9     4    28 1   
    10     5     6 ar  
    11     5    29 1   
    12     6    30 1   
    13     7    10 1   
    14     7    31 1   
    15     7    32 1   
    16     7    33 1   
    17     8    10 1   
    18     8    34 1   
    19     8    35 1   
    20     8    36 1   
    21     9    10 1   
    22     9    37 1   
    23     9    38 1   
    24     9    39 1   
    25    10    25 1   
    26    11    12 ar  
    27    11    18 ar  
    28    11    40 1   
    29    12    13 ar  
    30    12    41 1   
    31    13    14 ar  
    32    13    42 1   
    33    14    15 ar  
    34    14    22 1   
    35    15    18 ar  
    36    15    21 1   
    37    16    17 1   
    38    16    21 1   
    39    16    43 1   
    40    16    44 1   
    41    17    23 1   
    42    17    45 1   
    43    17    46 1   
    44    18    47 1   
    45    19    21 1   
    46    19    22 1   
    47    19    50 2   
    48    20    21 1   
    49    20    23 1   
    50    20    48 1   
    51    22    49 1   
    52    23    51 1   
    53    24    51 2   
    54    25    51 1   
@<TRIPOS>SUBSTRUCTURE
     1 D40         1 TEMP              0 ****  ****    0 ROOT
