@<TRIPOS>MOLECULE
D42
   54    58     1     0     0
SMALL
abcg2


@<TRIPOS>ATOM
      1 C1           3.2090     2.5310     1.1250 c6         1 D42       0.160800
      2 C2           4.1000     1.3300     1.3830 c6         1 D42       0.158300
      3 N3           4.0420     0.4390     0.2360 n3         1 D42      -0.491600
      4 C4           4.4450     1.1050    -0.9930 c6         1 D42       0.158300
      5 C5           3.5500     2.3080    -1.2230 c6         1 D42       0.160800
      6 N6           3.6010     3.2140    -0.0930 n3         1 D42      -0.718600
      7 C15          2.8000     4.3930    -0.3210 c3         1 D42       0.155100
      8 N19          4.6830    -0.7600     0.4430 ns         1 D42      -0.406300
      9 C20          4.0040    -1.9390     0.3880 c          1 D42       0.681100
     10 N21          2.6610    -1.7670     0.1760 ns         1 D42      -0.150000
     11 C22          1.6710    -2.7180     0.0780 ca         1 D42       0.081000
     12 C23          1.8750    -4.1120     0.1320 ca         1 D42      -0.154000
     13 C24          0.8080    -4.9830     0.0170 ca         1 D42      -0.060000
     14 C25         -0.5100    -4.5440    -0.1530 ca         1 D42      -0.119000
     15 C26         -0.7140    -3.1870    -0.2050 ca         1 D42      -0.062500
     16 C27          0.3570    -2.2800    -0.0940 ca         1 D42      -0.261600
     17 C31         -1.9210    -2.3710    -0.3600 cc         1 D42       0.325500
     18 C32         -1.5830    -1.0120    -0.3400 cc         1 D42      -0.322600
     19 C33         -0.1420    -0.8750    -0.1780 c          1 D42       0.654300
     20 N34         -3.2050    -2.5660    -0.5000 nd         1 D42      -0.472800
     21 N35         -3.7070    -1.3200    -0.5730 na         1 D42      -0.013200
     22 C36         -2.7800    -0.3340    -0.4810 cd         1 D42       0.048000
     23 C37         -3.0580     1.0760    -0.5230 cd         1 D42      -0.215000
     24 S38         -1.7700     2.2200    -0.3560 ss         1 D42       0.075600
     25 C39         -2.9110     3.4990    -0.5050 cd         1 D42       0.424700
     26 N40         -4.1360     3.1030    -0.6670 nc         1 D42      -0.650000
     27 C41         -4.2470     1.7460    -0.6810 cc         1 D42       0.321300
     28 C42         -5.5940     1.1310    -0.8650 c3         1 D42      -0.135400
     29 C46         -2.4860     4.9220    -0.4370 c3         1 D42      -0.133400
     30 O47          4.5680    -3.0130     0.5260 o          1 D42      -0.628100
     31 O50          0.5270     0.1390    -0.1190 o          1 D42      -0.549100
     32 H11          3.2970     3.2220     1.9670 h1         1 D42       0.047950
     33 H12          2.1600     2.1950     1.0850 h1         1 D42       0.047950
     34 H21A         3.7420     0.7950     2.2630 h1         1 D42       0.048950
     35 H22          5.1290     1.6640     1.5830 h1         1 D42       0.048950
     36 H41          4.3360     0.4060    -1.8230 h1         1 D42       0.048950
     37 H42          5.4970     1.4220    -0.9500 h1         1 D42       0.048950
     38 H51          2.5240     1.9560    -1.4210 h1         1 D42       0.047950
     39 H52          3.8920     2.8320    -2.1190 h1         1 D42       0.047950
     40 H151         1.7300     4.1710    -0.4620 h1         1 D42       0.031033
     41 H152         2.8870     5.0740     0.5270 h1         1 D42       0.031033
     42 H153         3.1500     4.9190    -1.2100 h1         1 D42       0.031033
     43 H19          5.6900    -0.7950     0.5470 hn         1 D42       0.325500
     44 H21          2.3740    -0.7940     0.0920 hn         1 D42       0.207000
     45 H23          2.8680    -4.5110     0.2620 ha         1 D42       0.153000
     46 H24          1.0060    -6.0450     0.0620 ha         1 D42       0.117000
     47 H25         -1.3250    -5.2500    -0.2370 ha         1 D42       0.131000
     48 H35         -4.7050    -1.2120    -0.6740 hn         1 D42       0.379000
     49 H421        -6.3440     1.9100    -0.9820 hc         1 D42       0.054700
     50 H422        -5.6340     0.5010    -1.7560 hc         1 D42       0.054700
     51 H423        -5.8860     0.5230    -0.0050 hc         1 D42       0.054700
     52 H461        -1.7060     5.1410    -1.1660 hc         1 D42       0.060700
     53 H462        -3.3380     5.5670    -0.6360 hc         1 D42       0.060700
     54 H463        -2.0910     5.1660     0.5500 hc         1 D42       0.060700
@<TRIPOS>BOND
     1     1     2 1   
     2     1     6 1   
     3     1    32 1   
     4     1    33 1   
     5     2     3 1   
     6     2    34 1   
     7     2    35 1   
     8     3     4 1   
     9     3     8 1   
    10     4     5 1   
    11     4    36 1   
    12     4    37 1   
    13     5     6 1   
    14     5    38 1   
    15     5    39 1   
    16     6     7 1   
    17     7    40 1   
    18     7    41 1   
    19     7    42 1   
    20     8     9 1   
    21     8    43 1   
    22     9    10 1   
    23     9    30 2   
    24    10    11 1   
    25    10    44 1   
    26    11    12 ar  
    27    11    16 ar  
    28    12    13 ar  
    29    12    45 1   
    30    13    14 ar  
    31    13    46 1   
    32    14    15 ar  
    33    14    47 1   
    34    15    16 ar  
    35    15    17 1   
    36    16    19 1   
    37    17    18 1   
    38    17    20 2   
    39    18    19 1   
    40    18    22 2   
    41    19    31 2   
    42    20    21 1   
    43    21    22 1   
    44    21    48 1   
    45    22    23 1   
    46    23    24 1   
    47    23    27 2   
    48    24    25 1   
    49    25    26 2   
    50    25    29 1   
    51    26    27 1   
    52    27    28 1   
    53    28    49 1   
    54    28    50 1   
    55    28    51 1   
    56    29    52 1   
    57    29    53 1   
    58    29    54 1   
@<TRIPOS>SUBSTRUCTURE
     1 D42         1 TEMP              0 ****  ****    0 ROOT
