@<TRIPOS>MOLECULE
D42
   54    58     1     0     0
SMALL
No Charge or Current Charge


@<TRIPOS>ATOM
      1 C1           3.2990     2.6110     1.2340 c6         1 D42       0.160800
      2 C2           4.1450     1.3090     1.3750 c6         1 D42       0.158300
      3 N3           4.0320     0.4580     0.1580 n3         1 D42      -0.491600
      4 C4           4.3850     1.2090    -1.0790 c6         1 D42       0.158300
      5 C5           3.5380     2.5110    -1.2100 c6         1 D42       0.160800
      6 N6           3.6480     3.3850     0.0010 n3         1 D42      -0.718600
      7 C15          2.8680     4.6340    -0.1270 c3         1 D42       0.155100
      8 N19          4.7060    -0.8040     0.2760 ns         1 D42      -0.406300
      9 C20          4.0450    -2.0230     0.2620 c          1 D42       0.681100
     10 N21          2.6780    -1.8940     0.1250 ns         1 D42      -0.150000
     11 C22          1.6200    -2.8330     0.0620 ca         1 D42       0.081000
     12 C23          1.7990    -4.2370     0.1350 ca         1 D42      -0.154000
     13 C24          0.6920    -5.1190     0.0650 ca         1 D42      -0.060000
     14 C25         -0.6180    -4.6190    -0.0810 ca         1 D42      -0.119000
     15 C26         -0.7820    -3.2320    -0.1530 ca         1 D42      -0.062500
     16 C27          0.3070    -2.3580    -0.0840 ca         1 D42      -0.261600
     17 C31         -1.9750    -2.4280    -0.3000 cc         1 D42       0.325500
     18 C32         -1.6400    -1.1010    -0.3210 cc         1 D42      -0.322600
     19 C33         -0.1850    -0.9350    -0.1880 c          1 D42       0.654300
     20 N34         -3.2540    -2.6990    -0.4110 nd         1 D42      -0.472800
     21 N35         -3.7850    -1.3930    -0.5150 na         1 D42      -0.013200
     22 C36         -2.7890    -0.3870    -0.4600 cd         1 D42       0.048000
     23 C37         -2.9520     1.0510    -0.5340 cd         1 D42      -0.215000
     24 S38         -1.6340     2.2100    -0.4540 ss         1 D42       0.075600
     25 C39         -2.8490     3.4640    -0.6210 cd         1 D42       0.424700
     26 N40         -4.1070     3.0650    -0.7260 nc         1 D42      -0.650000
     27 C41         -4.1720     1.6940    -0.6770 cc         1 D42       0.321300
     28 C42         -5.5450     1.0860    -0.7850 c3         1 D42      -0.135400
     29 C46         -2.4920     4.9220    -0.6460 c3         1 D42      -0.133400
     30 O47          4.6540    -3.0790     0.3650 o          1 D42      -0.628100
     31 O50          0.4970     0.0780    -0.1640 o          1 D42      -0.549100
     32 H11          3.4540     3.2290     2.1300 h1         1 D42       0.047950
     33 H12          2.2340     2.3320     1.2160 h1         1 D42       0.047950
     34 H21A         3.7990     0.7560     2.2610 h1         1 D42       0.048950
     35 H22          5.1950     1.5830     1.5500 h1         1 D42       0.048950
     36 H41          4.2130     0.5830    -1.9670 h1         1 D42       0.048950
     37 H42          5.4510     1.4760    -1.0690 h1         1 D42       0.048950
     38 H51          2.4880     2.2260    -1.3760 h1         1 D42       0.047950
     39 H52          3.8690     3.0560    -2.1060 h1         1 D42       0.047950
     40 H151         1.7950     4.4200    -0.2230 h1         1 D42       0.031033
     41 H152         3.0140     5.2730     0.7550 h1         1 D42       0.031033
     42 H153         3.1870     5.2010    -1.0120 h1         1 D42       0.031033
     43 H19          5.7170    -0.8410     0.3750 hn         1 D42       0.325500
     44 H21          2.3820    -0.9280     0.0560 hn         1 D42       0.207000
     45 H23          2.7890    -4.6660     0.2480 ha         1 D42       0.153000
     46 H24          0.8540    -6.1930     0.1240 ha         1 D42       0.117000
     47 H25         -1.4740    -5.2890    -0.1360 ha         1 D42       0.131000
     48 H35         -4.7840    -1.2430    -0.6170 hn         1 D42       0.379000
     49 H421        -6.3170     1.8580    -0.8900 hc         1 D42       0.054700
     50 H422        -5.6190     0.4360    -1.6640 hc         1 D42       0.054700
     51 H423        -5.7900     0.5080     0.1140 hc         1 D42       0.054700
     52 H461        -1.4100     5.0670    -0.5480 hc         1 D42       0.060700
     53 H462        -2.8110     5.3850    -1.5870 hc         1 D42       0.060700
     54 H463        -2.9790     5.4560     0.1780 hc         1 D42       0.060700
@<TRIPOS>BOND
     1     1     2 1   
     2     1     6 1   
     3     1    32 1   
     4     1    33 1   
     5     2     3 1   
     6     2    34 1   
     7     2    35 1   
     8     3     4 1   
     9     3     8 1   
    10     4     5 1   
    11     4    36 1   
    12     4    37 1   
    13     5     6 1   
    14     5    38 1   
    15     5    39 1   
    16     6     7 1   
    17     7    40 1   
    18     7    41 1   
    19     7    42 1   
    20     8     9 1   
    21     8    43 1   
    22     9    10 1   
    23     9    30 2   
    24    10    11 1   
    25    10    44 1   
    26    11    12 ar  
    27    11    16 ar  
    28    12    13 ar  
    29    12    45 1   
    30    13    14 ar  
    31    13    46 1   
    32    14    15 ar  
    33    14    47 1   
    34    15    16 ar  
    35    15    17 1   
    36    16    19 1   
    37    17    18 1   
    38    17    20 2   
    39    18    19 1   
    40    18    22 2   
    41    19    31 2   
    42    20    21 1   
    43    21    22 1   
    44    21    48 1   
    45    22    23 1   
    46    23    24 1   
    47    23    27 2   
    48    24    25 1   
    49    25    26 2   
    50    25    29 1   
    51    26    27 1   
    52    27    28 1   
    53    28    49 1   
    54    28    50 1   
    55    28    51 1   
    56    29    52 1   
    57    29    53 1   
    58    29    54 1   
@<TRIPOS>SUBSTRUCTURE
     1 D42         1 TEMP              0 ****  ****    0 ROOT
