@<TRIPOS>MOLECULE
D43
   50    52     1     0     0
SMALL
bcc


@<TRIPOS>ATOM
      1 C10         11.2710   -10.1180   -35.9410 c5         1 D43       0.148700
      2 C13         10.0690    -8.2130   -35.0290 c5         1 D43      -0.072400
      3 C17         11.9060   -13.6560   -33.9070 c3         1 D43       0.201800
      4 C20         12.3980   -13.3540   -32.4960 c3         1 D43      -0.108100
      5 C24          9.3660    -9.9930   -37.6890 c3         1 D43      -0.085100
      6 N11         10.3410   -10.5680   -34.9140 n          1 D43      -0.463800
      7 C14         10.5040   -11.6710   -34.1450 c          1 D43       0.777100
      8 O15          9.7970   -11.9140   -33.1840 o          1 D43      -0.596000
      9 O16         11.4950   -12.4400   -34.5800 os         1 D43      -0.450900
     10 C18         10.7900   -14.6940   -33.9110 c3         1 D43      -0.108100
     11 C1          12.4360    -6.3570   -38.5170 ca         1 D43      -0.162000
     12 C2          13.6700    -5.9600   -38.0220 ca         1 D43      -0.089000
     13 C3          14.1280    -6.4130   -36.7870 ca         1 D43      -0.166000
     14 C4          13.3130    -7.2780   -36.0820 ca         1 D43       0.066600
     15 C5          12.0770    -7.7070   -36.5680 ca         1 D43      -0.131300
     16 C6          11.6310    -7.2310   -37.7860 ca         1 D43      -0.072000
     17 N7          13.5310    -7.8300   -34.8280 ns         1 D43      -0.472100
     18 C8          12.4810    -8.5850   -34.4120 c          1 D43       0.704500
     19 C9          11.4530    -8.6210   -35.5540 c5         1 D43      -0.102700
     20 C12          9.4980    -9.4900   -34.4080 c5         1 D43       0.109000
     21 C19         13.0650   -14.1480   -34.7660 c3         1 D43      -0.108100
     22 O21         12.3870    -9.1370   -33.3360 o          1 D43      -0.589500
     23 C22         10.7970   -10.4170   -37.3740 c3         1 D43      -0.060700
     24 C23         10.9570   -11.9040   -37.6870 c3         1 D43      -0.085100
     25 H1          12.2260   -10.6320   -35.8220 h1         1 D43       0.078700
     26 H2          10.1290    -7.4010   -34.3040 hc         1 D43       0.059700
     27 H3           9.4480    -7.8590   -35.8490 hc         1 D43       0.059700
     28 H4          11.5920   -13.0440   -31.8350 hc         1 D43       0.048811
     29 H5          12.8520   -14.2500   -32.0720 hc         1 D43       0.048811
     30 H6          13.1580   -12.5710   -32.5090 hc         1 D43       0.048811
     31 H7           9.1920    -8.9240   -37.5760 hc         1 D43       0.035367
     32 H8           9.1280   -10.2430   -38.7240 hc         1 D43       0.035367
     33 H9           8.6480   -10.5190   -37.0570 hc         1 D43       0.035367
     34 H10          9.9520   -14.4070   -33.2810 hc         1 D43       0.048811
     35 H11         10.4220   -14.8670   -34.9240 hc         1 D43       0.048811
     36 H12         11.1800   -15.6410   -33.5370 hc         1 D43       0.048811
     37 H13         12.0920    -5.9860   -39.4730 ha         1 D43       0.136000
     38 H14         14.2860    -5.2800   -38.5960 ha         1 D43       0.134000
     39 H15         15.0840    -6.0920   -36.3940 ha         1 D43       0.141000
     40 H16         10.6660    -7.5230   -38.1820 ha         1 D43       0.139000
     41 H17         14.3380    -7.6410   -34.2530 hn         1 D43       0.340500
     42 H18          8.4520    -9.6330   -34.6850 h1         1 D43       0.063200
     43 H19          9.5500    -9.4570   -33.3210 h1         1 D43       0.063200
     44 H20         13.4670   -15.0730   -34.3530 hc         1 D43       0.048811
     45 H21         12.7380   -14.3500   -35.7870 hc         1 D43       0.048811
     46 H22         13.8730   -13.4150   -34.8020 hc         1 D43       0.048811
     47 H23         11.4760    -9.8760   -38.0400 hc         1 D43       0.051700
     48 H24         11.9750   -12.2520   -37.5080 hc         1 D43       0.035367
     49 H25         10.2850   -12.5150   -37.0830 hc         1 D43       0.035367
     50 H26         10.7190   -12.0910   -38.7350 hc         1 D43       0.035367
@<TRIPOS>BOND
     1     1     6 1   
     2     1    19 1   
     3     1    23 1   
     4     1    25 1   
     5     2    19 1   
     6     2    20 1   
     7     2    26 1   
     8     2    27 1   
     9     3     4 1   
    10     3     9 1   
    11     3    10 1   
    12     3    21 1   
    13     4    28 1   
    14     4    29 1   
    15     4    30 1   
    16     5    23 1   
    17     5    31 1   
    18     5    32 1   
    19     5    33 1   
    20     6     7 1   
    21     6    20 1   
    22     7     8 2   
    23     7     9 1   
    24    10    34 1   
    25    10    35 1   
    26    10    36 1   
    27    11    12 ar  
    28    11    16 ar  
    29    11    37 1   
    30    12    13 ar  
    31    12    38 1   
    32    13    14 ar  
    33    13    39 1   
    34    14    15 ar  
    35    14    17 1   
    36    15    16 ar  
    37    15    19 1   
    38    16    40 1   
    39    17    18 1   
    40    17    41 1   
    41    18    19 1   
    42    18    22 2   
    43    20    42 1   
    44    20    43 1   
    45    21    44 1   
    46    21    45 1   
    47    21    46 1   
    48    23    24 1   
    49    23    47 1   
    50    24    48 1   
    51    24    49 1   
    52    24    50 1   
@<TRIPOS>SUBSTRUCTURE
     1 D43         1 TEMP              0 ****  ****    0 ROOT
