@<TRIPOS>MOLECULE
D43
   50    52     1     0     0
SMALL
No Charge or Current Charge


@<TRIPOS>ATOM
      1 C10         11.5750    -9.9410   -35.5710 c5         1 D43       0.148700
      2 C13         10.1230    -8.0490   -34.9650 c5         1 D43      -0.072400
      3 C17         11.7600   -13.7940   -34.0130 c3         1 D43       0.225000
      4 C20         12.1670   -13.7900   -32.5170 c3         1 D43      -0.108100
      5 C24          9.3700   -10.3840   -37.7090 c3         1 D43      -0.085100
      6 N11         10.6040   -10.3470   -34.5300 n          1 D43      -0.396800
      7 C14         10.5760   -11.6200   -33.9420 c          1 D43       0.661100
      8 O15          9.7840   -11.9200   -33.0610 o          1 D43      -0.547000
      9 O16         11.5520   -12.4360   -34.4610 os         1 D43      -0.474100
     10 C18         10.4930   -14.6420   -34.2970 c3         1 D43      -0.108100
     11 C1          12.3370    -6.5070   -38.6350 ca         1 D43      -0.144000
     12 C2          13.5550    -5.9130   -38.2310 ca         1 D43      -0.071000
     13 C3          14.0520    -6.1350   -36.9320 ca         1 D43      -0.148000
     14 C4          13.3150    -6.9700   -36.0860 ca         1 D43      -0.026000
     15 C5          12.1400    -7.5850   -36.4740 ca         1 D43      -0.131300
     16 C6          11.6130    -7.3380   -37.7540 ca         1 D43      -0.054000
     17 N7          13.5460    -7.2870   -34.7530 ns         1 D43      -0.146000
     18 C8          12.6060    -8.0760   -34.1250 c          1 D43       0.562000
     19 C9          11.5970    -8.4060   -35.2940 c5         1 D43      -0.102700
     20 C12          9.7150    -9.2510   -34.0670 c5         1 D43       0.109000
     21 C19         12.9360   -14.3020   -34.8760 c3         1 D43      -0.108100
     22 O21         12.5960    -8.3760   -32.9370 o          1 D43      -0.514000
     23 C22         10.8870   -10.5920   -37.5050 c3         1 D43      -0.060700
     24 C23         11.2560   -12.0690   -37.7440 c3         1 D43      -0.085100
     25 H1          12.5740   -10.3690   -35.4050 h1         1 D43       0.078700
     26 H2          10.0170    -7.0850   -34.4540 hc         1 D43       0.059700
     27 H3           9.5020    -8.0050   -35.8640 hc         1 D43       0.059700
     28 H4          11.3200   -13.5640   -31.8610 hc         1 D43       0.048811
     29 H5          12.5490   -14.7750   -32.2230 hc         1 D43       0.048811
     30 H6          12.9570   -13.0520   -32.3310 hc         1 D43       0.048811
     31 H7           9.0960    -9.3270   -37.6480 hc         1 D43       0.035367
     32 H8           9.0560   -10.7520   -38.6930 hc         1 D43       0.035367
     33 H9           8.8030   -10.9250   -36.9420 hc         1 D43       0.035367
     34 H10          9.6760   -14.4040   -33.6060 hc         1 D43       0.048811
     35 H11         10.1370   -14.4820   -35.3210 hc         1 D43       0.048811
     36 H12         10.7140   -15.7090   -34.1790 hc         1 D43       0.048811
     37 H13         11.9490    -6.3130   -39.6330 ha         1 D43       0.118000
     38 H14         14.1000    -5.2690   -38.9180 ha         1 D43       0.116000
     39 H15         14.9720    -5.6620   -36.5940 ha         1 D43       0.123000
     40 H16         10.6650    -7.7640   -38.0680 ha         1 D43       0.121000
     41 H17         14.3240    -6.8890   -34.2450 hn         1 D43       0.174000
     42 H18          8.6530    -9.5060   -34.1850 h1         1 D43       0.063200
     43 H19          9.8970    -9.0360   -33.0060 h1         1 D43       0.063200
     44 H20         13.1990   -15.3320   -34.6100 hc         1 D43       0.048811
     45 H21         12.6750   -14.2840   -35.9410 hc         1 D43       0.048811
     46 H22         13.8250   -13.6760   -34.7320 hc         1 D43       0.048811
     47 H23         11.4180   -10.0170   -38.2720 hc         1 D43       0.051700
     48 H24         12.3290   -12.2230   -37.5820 hc         1 D43       0.035367
     49 H25         10.7070   -12.7230   -37.0570 hc         1 D43       0.035367
     50 H26         11.0180   -12.3710   -38.7710 hc         1 D43       0.035367
@<TRIPOS>BOND
     1     1     6 1   
     2     1    19 1   
     3     1    23 1   
     4     1    25 1   
     5     2    19 1   
     6     2    20 1   
     7     2    26 1   
     8     2    27 1   
     9     3     4 1   
    10     3     9 1   
    11     3    10 1   
    12     3    21 1   
    13     4    28 1   
    14     4    29 1   
    15     4    30 1   
    16     5    23 1   
    17     5    31 1   
    18     5    32 1   
    19     5    33 1   
    20     6     7 1   
    21     6    20 1   
    22     7     8 2   
    23     7     9 1   
    24    10    34 1   
    25    10    35 1   
    26    10    36 1   
    27    11    12 ar  
    28    11    16 ar  
    29    11    37 1   
    30    12    13 ar  
    31    12    38 1   
    32    13    14 ar  
    33    13    39 1   
    34    14    15 ar  
    35    14    17 1   
    36    15    16 ar  
    37    15    19 1   
    38    16    40 1   
    39    17    18 1   
    40    17    41 1   
    41    18    19 1   
    42    18    22 2   
    43    20    42 1   
    44    20    43 1   
    45    21    44 1   
    46    21    45 1   
    47    21    46 1   
    48    23    24 1   
    49    23    47 1   
    50    24    48 1   
    51    24    49 1   
    52    24    50 1   
@<TRIPOS>SUBSTRUCTURE
     1 D43         1 TEMP              0 ****  ****    0 ROOT
