@<TRIPOS>MOLECULE
D44
   38    40     1     0     0
SMALL
No Charge or Current Charge


@<TRIPOS>ATOM
      1 O1          -1.6710     2.3320    -0.0350 o          1 D44      -0.569100
      2 C2          -1.4830     1.1200    -0.0220 c          1 D44       0.615100
      3 N3          -2.4990     0.1730    -0.0220 ns         1 D44      -0.162000
      4 C4          -3.9210     0.2840     0.0130 ca         1 D44      -0.044000
      5 C9          -4.5750     1.5000     0.3180 ca         1 D44      -0.096000
      6 C8          -5.9770     1.5690     0.3560 ca         1 D44      -0.101000
      7 C7          -6.7450     0.4260     0.0950 ca         1 D44      -0.109000
      8 C6          -6.1090    -0.7890    -0.2000 ca         1 D44      -0.100000
      9 C5          -4.7020    -0.8720    -0.2430 ca         1 D44      -0.086300
     10 C10         -4.0600    -2.2230    -0.5690 c3         1 D44      -0.034100
     11 C11         -3.6110    -2.9810     0.6950 c3         1 D44      -0.088100
     12 C12         -0.0800     0.5000    -0.0230 c3         1 D44      -0.062400
     13 S13          1.2930     1.7530     0.0120 ss         1 D44      -0.139200
     14 C14          2.7270     0.7390     0.0060 cc         1 D44       0.421700
     15 N18          3.9910     1.2940     0.0270 na         1 D44      -0.409300
     16 C17          4.8710     0.2670     0.0160 ca         1 D44       0.346500
     17 N22          6.2160     0.2720     0.0270 nb         1 D44      -0.664000
     18 C21          6.8220    -0.9430     0.0110 ca         1 D44       0.351900
     19 C20          6.1070    -2.1620    -0.0170 ca         1 D44      -0.186000
     20 C19          4.6980    -2.1380    -0.0290 ca         1 D44      -0.020000
     21 C16          4.0880    -0.8770    -0.0120 ca         1 D44       0.039400
     22 N15          2.7200    -0.5990    -0.0190 nd         1 D44      -0.595100
     23 H1          -2.1700    -0.7830    -0.0440 hn         1 D44       0.160000
     24 H2          -4.0160     2.4030     0.5430 ha         1 D44       0.126000
     25 H3          -6.4690     2.5110     0.5930 ha         1 D44       0.118000
     26 H4          -7.8310     0.4800     0.1270 ha         1 D44       0.116000
     27 H5          -6.7140    -1.6710    -0.3950 ha         1 D44       0.114000
     28 H6          -4.7690    -2.8550    -1.1190 hc         1 D44       0.050700
     29 H7          -3.2030    -2.0960    -1.2420 hc         1 D44       0.050700
     30 H8          -3.1670    -3.9470     0.4240 hc         1 D44       0.034033
     31 H9          -2.8640    -2.4050     1.2540 hc         1 D44       0.034033
     32 H10         -4.4660    -3.1690     1.3550 hc         1 D44       0.034033
     33 H11          0.0040    -0.1500     0.8560 h1         1 D44       0.099700
     34 H12          0.0170    -0.1190    -0.9220 h1         1 D44       0.099700
     35 H13          4.2180     2.2760     0.0460 hn         1 D44       0.379000
     36 H14          7.9120    -0.9410     0.0200 h4         1 D44       0.022100
     37 H15          6.6450    -3.1050    -0.0300 ha         1 D44       0.125000
     38 H16          4.1100    -3.0530    -0.0510 ha         1 D44       0.132000
@<TRIPOS>BOND
     1     1     2 2   
     2     2     3 1   
     3     2    12 1   
     4     3     4 1   
     5     3    23 1   
     6     4     5 ar  
     7     4     9 ar  
     8     5     6 ar  
     9     5    24 1   
    10     6     7 ar  
    11     6    25 1   
    12     7     8 ar  
    13     7    26 1   
    14     8     9 ar  
    15     8    27 1   
    16     9    10 1   
    17    10    11 1   
    18    10    28 1   
    19    10    29 1   
    20    11    30 1   
    21    11    31 1   
    22    11    32 1   
    23    12    13 1   
    24    12    33 1   
    25    12    34 1   
    26    13    14 1   
    27    14    15 1   
    28    14    22 2   
    29    15    16 1   
    30    15    35 1   
    31    16    17 ar  
    32    16    21 ar  
    33    17    18 ar  
    34    18    19 ar  
    35    18    36 1   
    36    19    20 ar  
    37    19    37 1   
    38    20    21 ar  
    39    20    38 1   
    40    21    22 1   
@<TRIPOS>SUBSTRUCTURE
     1 D44         1 TEMP              0 ****  ****    0 ROOT
