@<TRIPOS>MOLECULE
D44
   38    40     1     0     0
SMALL
bcc


@<TRIPOS>ATOM
      1 O1          -1.6810     1.7900    -0.5620 o          1 D44      -0.569100
      2 C2          -1.4630     0.7380     0.0070 c          1 D44       0.682100
      3 N3          -2.4200    -0.0870     0.4780 ns         1 D44      -0.488100
      4 C4          -3.8080     0.1670     0.3610 ca         1 D44       0.048600
      5 C9          -4.3500     1.3060     0.9450 ca         1 D44      -0.114000
      6 C8          -5.7080     1.5620     0.8460 ca         1 D44      -0.119000
      7 C7          -6.5290     0.6680     0.1700 ca         1 D44      -0.127000
      8 C6          -5.9820    -0.4690    -0.4060 ca         1 D44      -0.118000
      9 C5          -4.6170    -0.7370    -0.3340 ca         1 D44      -0.086300
     10 C10         -4.0550    -1.9830    -0.9600 c3         1 D44      -0.034100
     11 C11         -3.9790    -3.1480     0.0270 c3         1 D44      -0.088100
     12 C12         -0.0540     0.2420     0.2510 c3         1 D44      -0.110300
     13 S13          1.0540     1.3540    -0.6450 ss         1 D44      -0.091300
     14 C14          2.5550     0.5310    -0.3420 cc         1 D44       0.421700
     15 N18          3.7150     1.0410    -0.8410 na         1 D44      -0.359000
     16 C17          4.7150     0.1880    -0.4560 ca         1 D44       0.411800
     17 N22          6.0010     0.2790    -0.7160 nb         1 D44      -0.664000
     18 C21          6.7330    -0.7090    -0.2050 ca         1 D44       0.417200
     19 C20          6.2120    -1.7640     0.5450 ca         1 D44      -0.269300
     20 C19          4.8490    -1.8370     0.8040 ca         1 D44      -0.038000
     21 C16          4.0670    -0.8180     0.2820 ca         1 D44      -0.025900
     22 N15          2.7160    -0.5720     0.3350 nd         1 D44      -0.595100
     23 H1          -2.1300    -0.9650     0.8840 hn         1 D44       0.326500
     24 H2          -3.7100     1.9860     1.4910 ha         1 D44       0.144000
     25 H3          -6.1230     2.4510     1.3000 ha         1 D44       0.136000
     26 H4          -7.5910     0.8570     0.0900 ha         1 D44       0.134000
     27 H5          -6.6240    -1.1600    -0.9400 ha         1 D44       0.132000
     28 H6          -4.6840    -2.2720    -1.8040 hc         1 D44       0.050700
     29 H7          -3.0630    -1.7840    -1.3720 hc         1 D44       0.050700
     30 H8          -3.5600    -4.0340    -0.4500 hc         1 D44       0.034033
     31 H9          -3.3530    -2.9120     0.8890 hc         1 D44       0.034033
     32 H10         -4.9690    -3.4060     0.4040 hc         1 D44       0.034033
     33 H11          0.1720     0.2610     1.3190 h1         1 D44       0.099700
     34 H12          0.0760    -0.7830    -0.0970 h1         1 D44       0.099700
     35 H13          3.8230     1.8760    -1.3970 hn         1 D44       0.328700
     36 H14          7.7980    -0.6650    -0.4010 h4         1 D44       0.022100
     37 H15          6.8830    -2.5250     0.9200 ha         1 D44       0.143000
     38 H16          4.4230    -2.6470     1.3800 ha         1 D44       0.150000
@<TRIPOS>BOND
     1     1     2 2   
     2     2     3 1   
     3     2    12 1   
     4     3     4 1   
     5     3    23 1   
     6     4     5 ar  
     7     4     9 ar  
     8     5     6 ar  
     9     5    24 1   
    10     6     7 ar  
    11     6    25 1   
    12     7     8 ar  
    13     7    26 1   
    14     8     9 ar  
    15     8    27 1   
    16     9    10 1   
    17    10    11 1   
    18    10    28 1   
    19    10    29 1   
    20    11    30 1   
    21    11    31 1   
    22    11    32 1   
    23    12    13 1   
    24    12    33 1   
    25    12    34 1   
    26    13    14 1   
    27    14    15 1   
    28    14    22 2   
    29    15    16 1   
    30    15    35 1   
    31    16    17 ar  
    32    16    21 ar  
    33    17    18 ar  
    34    18    19 ar  
    35    18    36 1   
    36    19    20 ar  
    37    19    37 1   
    38    20    21 ar  
    39    20    38 1   
    40    21    22 1   
@<TRIPOS>SUBSTRUCTURE
     1 D44         1 TEMP              0 ****  ****    0 ROOT
