@<TRIPOS>MOLECULE
D45
   50    53     1     0     0
SMALL
abcg2


@<TRIPOS>ATOM
      1 C1           1.8750     0.2170     0.6930 ca         1 D45       0.012200
      2 C2           2.4850     1.4630     0.8400 ca         1 D45      -0.169500
      3 C3           3.8420     1.5840     0.6230 ca         1 D45       0.032000
      4 C4           4.6000     0.4800     0.2530 ca         1 D45      -0.383000
      5 C5           4.0180    -0.7980     0.0980 ca         1 D45       0.407500
      6 C6           2.6360    -0.8850     0.3320 ca         1 D45      -0.195000
      7 C12         -4.0470     0.7740    -0.2790 ca         1 D45       0.407500
      8 C13         -2.6540     0.8920    -0.4420 ca         1 D45      -0.195000
      9 C14         -1.8040    -0.1960    -0.3370 ca         1 D45       0.012200
     10 N1           4.7550    -1.9010    -0.2390 nh         1 D45      -0.857900
     11 C8           6.0660    -1.7140    -0.8210 c6         1 D45       0.462000
     12 N2           6.8900    -0.8280    -0.0250 n7         1 D45      -0.838800
     13 S1           6.3200     0.7240    -0.0040 sy         1 D45       1.153100
     14 O1           6.5250     1.2890    -1.3270 o          1 D45      -0.529500
     15 O2           6.9160     1.4010     1.1360 o          1 D45      -0.529500
     16 C9           0.3910     0.0620     0.8640 c3         1 D45      -0.040100
     17 C10         -0.3230    -0.0110    -0.4960 c3         1 D45      -0.040100
     18 C11         -4.5360    -0.5210    -0.0050 ca         1 D45      -0.383000
     19 C15         -2.3240    -1.4620    -0.0540 ca         1 D45      -0.169500
     20 C16         -3.6830    -1.6140     0.1100 ca         1 D45       0.032000
     21 N3          -4.8650     1.8670    -0.3620 nh         1 D45      -0.857900
     22 C17         -6.2920     1.6790    -0.5160 c6         1 D45       0.462000
     23 N4          -6.8270     0.7310     0.4370 n7         1 D45      -0.838800
     24 S2          -6.2550    -0.8030     0.1980 sy         1 D45       1.153100
     25 O3          -6.5050    -1.5690     1.4070 o          1 D45      -0.529500
     26 O4          -6.8110    -1.2870    -1.0550 o          1 D45      -0.529500
     27 C18         -4.3220     3.1560    -0.7290 c3         1 D45       0.213600
     28 H1           1.9030     2.3290     1.1260 ha         1 D45       0.120000
     29 H2           4.3190     2.5490     0.7470 ha         1 D45       0.128000
     30 H3           2.1330    -1.8360     0.2170 ha         1 D45       0.115500
     31 H4           3.4210    -3.1780    -1.2920 h1         1 D45       0.045200
     32 H5           4.8670    -3.9330    -0.6170 h1         1 D45       0.045200
     33 H6           3.5510    -3.4770     0.4490 h1         1 D45       0.045200
     34 H8           6.5670    -2.6770    -0.8780 h2         1 D45       0.081700
     35 H9           6.0110    -1.3110    -1.8370 h2         1 D45       0.081700
     36 H10          7.0620    -1.1780     0.9140 hn         1 D45       0.486500
     37 H11          0.1760    -0.8430     1.4360 hc         1 D45       0.057450
     38 H12         -0.0100     0.9010     1.4350 hc         1 D45       0.057450
     39 H13          0.0910    -0.8410    -1.0740 hc         1 D45       0.057450
     40 H14         -0.1160     0.9000    -1.0600 hc         1 D45       0.057450
     41 H15         -1.6670    -2.3180     0.0280 ha         1 D45       0.120000
     42 H16         -4.0900    -2.5940     0.3300 ha         1 D45       0.128000
     43 H17         -6.7900     2.6320    -0.3510 h2         1 D45       0.081700
     44 H18         -6.5530     1.3400    -1.5240 h2         1 D45       0.081700
     45 H19         -6.7180     1.0250     1.4030 hn         1 D45       0.486500
     46 H20         -3.9110     3.1690    -1.7420 h1         1 D45       0.045200
     47 H21         -5.1140     3.8990    -0.6770 h1         1 D45       0.045200
     48 H22         -3.5400     3.4650    -0.0360 h1         1 D45       0.045200
     49 C7           4.1060    -3.1770    -0.4400 c3         1 D45       0.213600
     50 H7          -2.2240     1.8560    -0.6760 ha         1 D45       0.115500
@<TRIPOS>BOND
     1     1     2 ar  
     2     1     6 ar  
     3     1    16 1   
     4     2     3 ar  
     5     2    28 1   
     6     3     4 ar  
     7     3    29 1   
     8     4     5 ar  
     9     4    13 1   
    10     5     6 ar  
    11     5    10 1   
    12     6    30 1   
    13     7     8 ar  
    14     7    18 ar  
    15     7    21 1   
    16     8     9 ar  
    17     8    50 1   
    18     9    17 1   
    19     9    19 ar  
    20    10    11 1   
    21    10    49 1   
    22    11    12 1   
    23    11    34 1   
    24    11    35 1   
    25    12    13 1   
    26    12    36 1   
    27    13    14 2   
    28    13    15 2   
    29    16    17 1   
    30    16    37 1   
    31    16    38 1   
    32    17    39 1   
    33    17    40 1   
    34    18    20 ar  
    35    18    24 1   
    36    19    20 ar  
    37    19    41 1   
    38    20    42 1   
    39    21    22 1   
    40    21    27 1   
    41    22    23 1   
    42    22    43 1   
    43    22    44 1   
    44    23    24 1   
    45    23    45 1   
    46    24    25 2   
    47    24    26 2   
    48    27    46 1   
    49    27    47 1   
    50    27    48 1   
    51    31    49 1   
    52    32    49 1   
    53    33    49 1   
@<TRIPOS>SUBSTRUCTURE
     1 D45         1 TEMP              0 ****  ****    0 ROOT
