@<TRIPOS>MOLECULE
D45
   50    53     1     0     0
SMALL
No Charge or Current Charge


@<TRIPOS>ATOM
      1 C1           1.8630     0.2330     0.4100 ca         1 D45       0.012200
      2 C2           2.4380     1.5140     0.3410 ca         1 D45      -0.169500
      3 C3           3.8220     1.6580     0.1590 ca         1 D45       0.032000
      4 C4           4.6290     0.5120     0.0430 ca         1 D45      -0.383000
      5 C5           4.0760    -0.7640     0.1050 ca         1 D45       0.407500
      6 C6           2.6880    -0.9000     0.2910 ca         1 D45      -0.195000
      7 C12         -4.0920     0.7410    -0.2460 ca         1 D45       0.407500
      8 C13         -2.7030     0.8770    -0.4230 ca         1 D45      -0.195000
      9 C14         -1.8800    -0.2560    -0.5560 ca         1 D45       0.012200
     10 N1           4.9240    -1.8790    -0.0160 nh         1 D45      -0.857900
     11 C8           6.1110    -1.7540    -0.8430 c6         1 D45       0.462000
     12 N2           6.9220    -0.8790    -0.0700 n7         1 D45      -0.838800
     13 S1           6.3780     0.6820    -0.1640 sy         1 D45       1.153100
     14 O1           6.6690     1.1500    -1.5220 o          1 D45      -0.529500
     15 O2           6.9280     1.3720     1.0050 o          1 D45      -0.529500
     16 C9           0.3610     0.0730     0.5980 c3         1 D45      -0.040100
     17 C10         -0.3780    -0.0950    -0.7450 c3         1 D45      -0.040100
     18 C11         -4.6480    -0.5350    -0.1980 ca         1 D45      -0.383000
     19 C15         -2.4570    -1.5360    -0.5040 ca         1 D45      -0.169500
     20 C16         -3.8410    -1.6800    -0.3250 ca         1 D45       0.032000
     21 N3          -4.9390     1.8550    -0.1080 nh         1 D45      -0.857900
     22 C17         -6.3000     1.7510    -0.6000 c6         1 D45       0.462000
     23 N4          -6.8850     0.8500     0.3310 n7         1 D45      -0.838800
     24 S2          -6.3910    -0.7060     0.0520 sy         1 D45       1.153100
     25 O3          -6.6200    -1.4320     1.3020 o          1 D45      -0.529500
     26 O4          -7.0260    -1.1340    -1.1970 o          1 D45      -0.529500
     27 C18         -4.4230     3.2130     0.1890 c3         1 D45       0.213600
     28 H1           1.8140     2.4000     0.4270 ha         1 D45       0.120000
     29 H2           4.2600     2.6540     0.1120 ha         1 D45       0.128000
     30 H3           2.2360    -1.8850     0.3320 ha         1 D45       0.115500
     31 H4           3.8390    -3.6720    -0.4050 h1         1 D45       0.045200
     32 H5           5.3660    -3.9090     0.4820 h1         1 D45       0.045200
     33 H6           3.9630    -3.2310     1.3220 h1         1 D45       0.045200
     34 H8           6.6140    -2.7290    -0.9490 h2         1 D45       0.081700
     35 H9           5.8840    -1.3420    -1.8410 h2         1 D45       0.081700
     36 H10          6.6160    -1.1050     0.8690 hn         1 D45       0.486500
     37 H11          0.1540    -0.7980     1.2330 hc         1 D45       0.057450
     38 H12         -0.0490     0.9410     1.1290 hc         1 D45       0.057450
     39 H13          0.0320    -0.9630    -1.2750 hc         1 D45       0.057450
     40 H14         -0.1710     0.7760    -1.3790 hc         1 D45       0.057450
     41 H15         -1.8340    -2.4220    -0.5990 ha         1 D45       0.120000
     42 H16         -4.2800    -2.6770    -0.2820 ha         1 D45       0.128000
     43 H17         -6.8100     2.7270    -0.5430 h2         1 D45       0.081700
     44 H18         -6.3430     1.3700    -1.6350 h2         1 D45       0.081700
     45 H19         -6.3440     1.0490     1.1640 hn         1 D45       0.486500
     46 H20         -3.9860     3.6650    -0.7100 h1         1 D45       0.045200
     47 H21         -5.2280     3.8670     0.5500 h1         1 D45       0.045200
     48 H22         -3.6570     3.1700     0.9750 h1         1 D45       0.045200
     49 C7           4.4980    -3.2470     0.3630 c3         1 D45       0.213600
     50 H7          -2.2520     1.8620    -0.4690 ha         1 D45       0.115500
@<TRIPOS>BOND
     1     1     2 ar  
     2     1     6 ar  
     3     1    16 1   
     4     2     3 ar  
     5     2    28 1   
     6     3     4 ar  
     7     3    29 1   
     8     4     5 ar  
     9     4    13 1   
    10     5     6 ar  
    11     5    10 1   
    12     6    30 1   
    13     7     8 ar  
    14     7    18 ar  
    15     7    21 1   
    16     8     9 ar  
    17     8    50 1   
    18     9    17 1   
    19     9    19 ar  
    20    10    11 1   
    21    10    49 1   
    22    11    12 1   
    23    11    34 1   
    24    11    35 1   
    25    12    13 1   
    26    12    36 1   
    27    13    14 2   
    28    13    15 2   
    29    16    17 1   
    30    16    37 1   
    31    16    38 1   
    32    17    39 1   
    33    17    40 1   
    34    18    20 ar  
    35    18    24 1   
    36    19    20 ar  
    37    19    41 1   
    38    20    42 1   
    39    21    22 1   
    40    21    27 1   
    41    22    23 1   
    42    22    43 1   
    43    22    44 1   
    44    23    24 1   
    45    23    45 1   
    46    24    25 2   
    47    24    26 2   
    48    27    46 1   
    49    27    47 1   
    50    27    48 1   
    51    31    49 1   
    52    32    49 1   
    53    33    49 1   
@<TRIPOS>SUBSTRUCTURE
     1 D45         1 TEMP              0 ****  ****    0 ROOT
