@<TRIPOS>MOLECULE
D46
   48    51     1     0     0
SMALL
No Charge or Current Charge


@<TRIPOS>ATOM
      1 C1          -2.4390     5.5850     0.3950 ca         1 D46      -0.128000
      2 Cl1         -1.9500    -3.7820     2.5250 cl         1 D46      -0.128000
      3 C2          -2.5600     4.5380    -0.5300 ca         1 D46      -0.082000
      4 C3          -1.5480     3.5640    -0.6470 ca         1 D46      -0.148300
      5 C4          -0.3940     3.6460     0.1740 ca         1 D46      -0.006000
      6 C5          -0.2910     4.7010     1.1100 ca         1 D46      -0.117000
      7 C6          -1.3050     5.6660     1.2160 ca         1 D46      -0.081000
      8 C7          -1.7160     2.4510    -1.6790 c3         1 D46       0.137300
      9 N8          -1.8400     1.1400    -1.0440 ns         1 D46      -0.518900
     10 C9          -1.6570    -0.0540    -1.6980 c          1 D46       0.633700
     11 C10         -1.7240    -1.2340    -0.8200 cc         1 D46      -0.298600
     12 O11         -1.4330    -0.1120    -2.8970 o          1 D46      -0.567100
     13 N12          0.6000     2.6340     0.0610 ns         1 D46      -0.164000
     14 C13          1.9150     2.5520     0.5190 c          1 D46       0.541600
     15 C14          2.5430     1.2030     0.2910 cc         1 D46       0.362900
     16 O15          2.4960     3.4970     1.0530 o          1 D46      -0.532100
     17 S16         -2.0040    -1.1730     0.9200 ss         1 D46       0.250000
     18 C17         -1.8250    -2.9210     1.0230 cc         1 D46      -0.017000
     19 C18         -1.5860    -3.4830    -0.2040 cd         1 D46      -0.138000
     20 C19         -1.5280    -2.5260    -1.2540 cd         1 D46      -0.050000
     21 N20          3.7910     0.8770     0.6470 nd         1 D46      -0.572000
     22 C21          4.0450    -0.4500     0.3400 cd         1 D46       0.292300
     23 C22          3.0030    -1.1220    -0.2460 cc         1 D46      -0.226300
     24 S23          1.6240    -0.0930    -0.4580 ss         1 D46      -0.015400
     25 C24          3.0520    -2.5790    -0.6190 c6         1 D46       0.244100
     26 N25          4.4630    -3.0440    -0.7030 n3         1 D46      -0.710600
     27 C26          5.2420    -2.6580     0.5030 c6         1 D46       0.162800
     28 C27          5.3650    -1.1220     0.6140 c6         1 D46      -0.099700
     29 C28          4.5530    -4.4900    -1.0000 c3         1 D46       0.151100
     30 H1          -3.2260     6.3320     0.4790 ha         1 D46       0.118000
     31 H2          -3.4460     4.4850    -1.1590 ha         1 D46       0.113000
     32 H5           0.5620     4.7810     1.7770 ha         1 D46       0.137000
     33 H6          -1.2150     6.4730     1.9400 ha         1 D46       0.119000
     34 H7          -2.6120     2.6290    -2.2890 h1         1 D46       0.067200
     35 H7A         -0.8500     2.4480    -2.3550 h1         1 D46       0.067200
     36 HN8         -2.0690     1.1020    -0.0600 hn         1 D46       0.312500
     37 HN12         0.2710     1.8050    -0.4160 hn         1 D46       0.168000
     38 H18         -1.4480    -4.5490    -0.3550 ha         1 D46       0.153000
     39 H19         -1.3330    -2.7910    -2.2910 ha         1 D46       0.163000
     40 H24          2.5020    -3.1650     0.1320 h1         1 D46       0.046700
     41 H24A         2.5430    -2.7360    -1.5820 h1         1 D46       0.046700
     42 H26          4.7540    -3.0490     1.4080 h1         1 D46       0.038200
     43 H26A         6.2540    -3.0890     0.4690 h1         1 D46       0.038200
     44 H27          6.1090    -0.7670    -0.1100 hc         1 D46       0.070200
     45 H27A         5.7420    -0.8510     1.6080 hc         1 D46       0.070200
     46 H28          4.0160    -4.7290    -1.9280 h1         1 D46       0.033033
     47 H28A         5.6010    -4.7950    -1.1290 h1         1 D46       0.033033
     48 H28B         4.1190    -5.0860    -0.1860 h1         1 D46       0.033033
@<TRIPOS>BOND
     1     1     3 ar  
     2     1     7 ar  
     3     1    30 1   
     4     2    18 1   
     5     3     4 ar  
     6     3    31 1   
     7     4     5 ar  
     8     4     8 1   
     9     5     6 ar  
    10     5    13 1   
    11     6     7 ar  
    12     6    32 1   
    13     7    33 1   
    14     8     9 1   
    15     8    34 1   
    16     8    35 1   
    17     9    10 1   
    18     9    36 1   
    19    10    11 1   
    20    10    12 2   
    21    11    17 1   
    22    11    20 2   
    23    13    14 1   
    24    13    37 1   
    25    14    15 1   
    26    14    16 2   
    27    15    21 2   
    28    15    24 1   
    29    17    18 1   
    30    18    19 2   
    31    19    20 1   
    32    19    38 1   
    33    20    39 1   
    34    21    22 1   
    35    22    23 2   
    36    22    28 1   
    37    23    24 1   
    38    23    25 1   
    39    25    26 1   
    40    25    40 1   
    41    25    41 1   
    42    26    27 1   
    43    26    29 1   
    44    27    28 1   
    45    27    42 1   
    46    27    43 1   
    47    28    44 1   
    48    28    45 1   
    49    29    46 1   
    50    29    47 1   
    51    29    48 1   
@<TRIPOS>SUBSTRUCTURE
     1 D46         1 TEMP              0 ****  ****    0 ROOT
