@<TRIPOS>MOLECULE
D46
   48    51     1     0     0
SMALL
abcg2


@<TRIPOS>ATOM
      1 C1          -2.3000     5.6740     0.4030 ca         1 D46      -0.128000
      2 CL1         -2.2240    -4.1100     1.6600 cl         1 D46      -0.128000
      3 C2          -2.4120     4.6510    -0.5280 ca         1 D46      -0.082000
      4 C3          -1.5150     3.5900    -0.5450 ca         1 D46      -0.148300
      5 C4          -0.5030     3.5540     0.4250 ca         1 D46      -0.006000
      6 C5          -0.3930     4.5700     1.3680 ca         1 D46      -0.117000
      7 C6          -1.2850     5.6320     1.3460 ca         1 D46      -0.081000
      8 C7          -1.6040     2.5540    -1.6350 c3         1 D46       0.137300
      9 N8          -1.7360     1.2040    -1.1090 ns         1 D46      -0.518900
     10 C9          -1.2290     0.1290    -1.7720 c          1 D46       0.633700
     11 C10         -1.4090    -1.1870    -1.1300 cc         1 D46      -0.298600
     12 O11         -0.5920     0.2290    -2.8060 o          1 D46      -0.567100
     13 N12          0.3570     2.4430     0.4340 ns         1 D46      -0.164000
     14 C13          1.7000     2.4430     0.6070 c          1 D46       0.541600
     15 C14          2.3040     1.0830     0.5030 cc         1 D46       0.362900
     16 O15          2.3820     3.4260     0.8030 o          1 D46      -0.532100
     17 S16         -2.1230    -1.4220     0.4250 ss         1 D46       0.250000
     18 C17         -1.7750    -3.0990     0.3670 cc         1 D46      -0.017000
     19 C18         -1.1430    -3.4690    -0.7810 cd         1 D46      -0.138000
     20 C19         -0.9320    -2.3630    -1.6360 cd         1 D46      -0.050000
     21 N20          3.5240     0.8900     0.1190 nd         1 D46      -0.572000
     22 C21          3.8170    -0.4370     0.0550 cd         1 D46       0.292300
     23 C22          2.7990    -1.2770     0.3970 cc         1 D46      -0.226300
     24 S23          1.4230    -0.3680     0.8390 ss         1 D46      -0.015400
     25 C24          2.8940    -2.7650     0.3920 c6         1 D46       0.244100
     26 N25          4.0430    -3.1620    -0.3990 n3         1 D46      -0.710600
     27 C26          5.2430    -2.4450     0.0010 c6         1 D46       0.162800
     28 C27          5.1440    -0.9690    -0.3690 c6         1 D46      -0.099700
     29 C28          4.2200    -4.5970    -0.3460 c3         1 D46       0.151100
     30 H1          -3.0030     6.4960     0.3910 ha         1 D46       0.118000
     31 H2          -3.2030     4.6820    -1.2680 ha         1 D46       0.113000
     32 H5           0.3760     4.5290     2.1260 ha         1 D46       0.137000
     33 H6          -1.1900     6.4200     2.0810 ha         1 D46       0.119000
     34 H7          -2.4390     2.7880    -2.2990 h1         1 D46       0.067200
     35 H7A         -0.7000     2.5850    -2.2440 h1         1 D46       0.067200
     36 HN8         -2.4880     1.0650    -0.4490 hn         1 D46       0.312500
     37 HN12        -0.0790     1.5880     0.1170 hn         1 D46       0.168000
     38 H18         -0.8430    -4.4820    -1.0030 ha         1 D46       0.153000
     39 H19         -0.4310    -2.4330    -2.5910 ha         1 D46       0.163000
     40 H24          2.9540    -3.1300     1.4320 h1         1 D46       0.046700
     41 H24A         1.9910    -3.2050    -0.0410 h1         1 D46       0.046700
     42 H26          5.4330    -2.5460     1.0830 h1         1 D46       0.038200
     43 H26A         6.0980    -2.8890    -0.5110 h1         1 D46       0.038200
     44 H27          5.2670    -0.8410    -1.4480 hc         1 D46       0.070200
     45 H27A         5.9500    -0.4100     0.1100 hc         1 D46       0.070200
     46 H28          3.3120    -5.0970    -0.6870 h1         1 D46       0.033033
     47 H28A         5.0340    -4.8950    -1.0080 h1         1 D46       0.033033
     48 H28B         4.4490    -4.9700     0.6640 h1         1 D46       0.033033
@<TRIPOS>BOND
     1     1     3 ar  
     2     1     7 ar  
     3     1    30 1   
     4     2    18 1   
     5     3     4 ar  
     6     3    31 1   
     7     4     5 ar  
     8     4     8 1   
     9     5     6 ar  
    10     5    13 1   
    11     6     7 ar  
    12     6    32 1   
    13     7    33 1   
    14     8     9 1   
    15     8    34 1   
    16     8    35 1   
    17     9    10 1   
    18     9    36 1   
    19    10    11 1   
    20    10    12 2   
    21    11    17 1   
    22    11    20 2   
    23    13    14 1   
    24    13    37 1   
    25    14    15 1   
    26    14    16 2   
    27    15    21 2   
    28    15    24 1   
    29    17    18 1   
    30    18    19 2   
    31    19    20 1   
    32    19    38 1   
    33    20    39 1   
    34    21    22 1   
    35    22    23 2   
    36    22    28 1   
    37    23    24 1   
    38    23    25 1   
    39    25    26 1   
    40    25    40 1   
    41    25    41 1   
    42    26    27 1   
    43    26    29 1   
    44    27    28 1   
    45    27    42 1   
    46    27    43 1   
    47    28    44 1   
    48    28    45 1   
    49    29    46 1   
    50    29    47 1   
    51    29    48 1   
@<TRIPOS>SUBSTRUCTURE
     1 D46         1 TEMP              0 ****  ****    0 ROOT
