@<TRIPOS>MOLECULE
D47
   54    58     1     0     0
SMALL
abcg2


@<TRIPOS>ATOM
      1 C4           4.5740    -0.5790     0.2890 ca         1 D47       0.171000
      2 C14          0.2300    -2.8740     1.3690 c          1 D47       0.590000
      3 C5           4.1010    -1.5230     1.2000 ca         1 D47      -0.142000
      4 C6           4.6870    -1.5880     2.4620 ca         1 D47      -0.050000
      5 C11          0.3030    -0.5480    -0.2870 c6         1 D47      -0.180400
      6 C8           1.3720    -1.8830     1.5650 c6         1 D47      -0.145700
      7 C9           1.1800    -0.5300     0.9280 c          1 D47       0.585100
      8 C12         -1.0600    -1.1180     0.1280 c6         1 D47       0.171400
      9 C3           5.6100     0.2780     0.6290 ca         1 D47      -0.114000
     10 C1           5.7130    -0.7260     2.8140 ca         1 D47      -0.122000
     11 C2           6.1750     0.2030     1.8920 ca         1 D47      -0.071000
     12 S7           2.8320    -2.6750     0.7780 ss         1 D47      -0.122000
     13 N13         -0.8540    -2.4360     0.7070 ns         1 D47      -0.502900
     14 O15          0.3280    -4.0060     1.8070 o          1 D47      -0.536000
     15 C16         -1.9840    -1.2560    -1.0600 cc         1 D47      -0.109300
     16 C17         -3.3440    -1.6700    -0.9250 cc         1 D47      -0.125000
     17 C18         -4.0050    -1.6940    -2.1120 cd         1 D47      -0.240000
     18 S19         -2.9900    -1.2100    -3.4060 ss         1 D47       0.220000
     19 C20         -1.6610    -0.9770    -2.3520 cd         1 D47      -0.221000
     20 C21         -1.7000    -0.1540     1.1290 ca         1 D47       0.369300
     21 C22         -1.8680    -0.4410     2.4670 ca         1 D47      -0.198000
     22 C23         -2.4280     0.5590     3.2710 ca         1 D47      -0.032000
     23 C24         -2.8000     1.7600     2.7220 ca         1 D47      -0.220000
     24 C25         -2.5990     1.9440     1.3390 ca         1 D47       0.631900
     25 N26         -2.0520     1.0070     0.5870 nb         1 D47      -0.737000
     26 N27         -2.9800     3.1240     0.7640 nu         1 D47      -0.942900
     27 C28         -2.9840     3.5050    -0.5750 ca         1 D47       0.304000
     28 C29         -2.8540     2.6240    -1.6530 ca         1 D47      -0.129500
     29 C30         -2.9060     3.0990    -2.9570 ca         1 D47      -0.123000
     30 C31         -3.0900     4.4460    -3.1890 ca         1 D47       0.137000
     31 C32         -3.2270     5.3400    -2.1450 ca         1 D47      -0.123000
     32 C33         -3.1700     4.8650    -0.8460 ca         1 D47      -0.129500
     33 F34         -3.1360     4.9000    -4.4550 f          1 D47      -0.181000
     34 CL35         3.8780    -0.4420    -1.2860 cl         1 D47      -0.186000
     35 H1           4.3280    -2.3240     3.1700 ha         1 D47       0.130000
     36 H2           0.1880     0.4510    -0.7000 hc         1 D47       0.097200
     37 H3           0.7530    -1.2000    -1.0420 hc         1 D47       0.097200
     38 H4           1.5580    -1.7810     2.6370 h1         1 D47       0.116700
     39 H5           5.9720     1.0020    -0.0880 ha         1 D47       0.132000
     40 H6           6.1530    -0.7870     3.8000 ha         1 D47       0.122000
     41 H7           6.9820     0.8760     2.1520 ha         1 D47       0.120000
     42 H8          -1.6160    -3.0980     0.6330 hn         1 D47       0.329500
     43 H9          -3.8130    -1.9230     0.0160 ha         1 D47       0.137000
     44 H10         -5.0330    -1.9640    -2.2940 h4         1 D47       0.154000
     45 H11         -0.7200    -0.6290    -2.7490 h4         1 D47       0.156000
     46 H12         -1.6000    -1.3960     2.8950 ha         1 D47       0.133000
     47 H13         -2.5760     0.3820     4.3280 ha         1 D47       0.121000
     48 H14         -3.2430     2.5410     3.3270 ha         1 D47       0.124000
     49 H15         -3.2960     3.8320     1.4080 hn         1 D47       0.497000
     50 H16         -2.7020     1.5700    -1.4860 ha         1 D47       0.132500
     51 H17         -2.8040     2.4080    -3.7830 ha         1 D47       0.130000
     52 H18         -3.3680     6.3960    -2.3350 ha         1 D47       0.130000
     53 H19         -3.2700     5.5680    -0.0270 ha         1 D47       0.132500
     54 O10          1.7020     0.4580     1.3810 o          1 D47      -0.488100
@<TRIPOS>BOND
     1     1     3 ar  
     2     1     9 ar  
     3     1    34 1   
     4     2     6 1   
     5     2    13 1   
     6     2    14 2   
     7     3     4 ar  
     8     3    12 1   
     9     4    10 ar  
    10     4    35 1   
    11     5     7 1   
    12     5     8 1   
    13     5    36 1   
    14     5    37 1   
    15     6     7 1   
    16     6    12 1   
    17     6    38 1   
    18     7    54 2   
    19     8    13 1   
    20     8    15 1   
    21     8    20 1   
    22     9    11 ar  
    23     9    39 1   
    24    10    11 ar  
    25    10    40 1   
    26    11    41 1   
    27    13    42 1   
    28    15    16 1   
    29    15    19 2   
    30    16    17 2   
    31    16    43 1   
    32    17    18 1   
    33    17    44 1   
    34    18    19 1   
    35    19    45 1   
    36    20    21 ar  
    37    20    25 ar  
    38    21    22 ar  
    39    21    46 1   
    40    22    23 ar  
    41    22    47 1   
    42    23    24 ar  
    43    23    48 1   
    44    24    25 ar  
    45    24    26 1   
    46    26    27 1   
    47    26    49 1   
    48    27    28 ar  
    49    27    32 ar  
    50    28    29 ar  
    51    28    50 1   
    52    29    30 ar  
    53    29    51 1   
    54    30    31 ar  
    55    30    33 1   
    56    31    32 ar  
    57    31    52 1   
    58    32    53 1   
@<TRIPOS>SUBSTRUCTURE
     1 D47         1 TEMP              0 ****  ****    0 ROOT
