@<TRIPOS>MOLECULE
D47
   54    58     1     0     0
SMALL
No Charge or Current Charge


@<TRIPOS>ATOM
      1 C4           3.8380    -1.0830    -0.8690 ca         1 D47       0.171000
      2 C14         -0.1410    -1.7080     2.4290 c          1 D47       0.590000
      3 C5           3.5280    -1.0090     0.5050 ca         1 D47      -0.142000
      4 C6           4.1550    -0.0390     1.3090 ca         1 D47      -0.050000
      5 C11         -0.4200    -0.7660    -0.3410 c6         1 D47      -0.180400
      6 C8           1.0050    -0.9530     1.7800 c6         1 D47      -0.145700
      7 C9           0.5370    -0.0890     0.6250 c          1 D47       0.585100
      8 C12         -1.6480    -1.3850     0.3870 c6         1 D47       0.171400
      9 C3           4.7670    -0.1910    -1.4310 ca         1 D47      -0.114000
     10 C1           5.0850     0.8520     0.7440 ca         1 D47      -0.122000
     11 C2           5.3920     0.7770    -0.6250 ca         1 D47      -0.071000
     12 S7           2.3370    -2.1250     1.2390 ss         1 D47      -0.122000
     13 N13         -1.2500    -1.9970     1.6710 ns         1 D47      -0.502900
     14 O15         -0.0690    -2.1050     3.5800 o          1 D47      -0.536000
     15 C16         -2.1930    -2.4640    -0.5430 cc         1 D47      -0.109300
     16 C17         -1.7030    -3.8000    -0.5290 cc         1 D47      -0.125000
     17 C18         -2.2950    -4.6240    -1.4500 cd         1 D47      -0.240000
     18 S19         -3.5110    -3.7560    -2.3990 ss         1 D47       0.220000
     19 C20         -3.1590    -2.2690    -1.5030 cd         1 D47      -0.221000
     20 C21         -2.7560    -0.3290     0.7240 ca         1 D47       0.369300
     21 C22         -4.0320    -0.7450     1.1610 ca         1 D47      -0.198000
     22 C23         -4.9950     0.2150     1.5020 ca         1 D47      -0.032000
     23 C24         -4.6370     1.5660     1.4010 ca         1 D47      -0.220000
     24 C25         -3.3490     1.8930     0.9630 ca         1 D47       0.631900
     25 N26         -2.4240     0.9830     0.6500 nb         1 D47      -0.737000
     26 N27         -2.9420     3.2070     0.8920 nu         1 D47      -0.942900
     27 C28         -1.8340     3.8530     0.3350 ca         1 D47       0.304000
     28 C29         -1.1780     3.3640    -0.8130 ca         1 D47      -0.129500
     29 C30         -0.0750     4.0520    -1.3540 ca         1 D47      -0.123000
     30 C31          0.3690     5.2390    -0.7530 ca         1 D47       0.137000
     31 C32         -0.2870     5.7480     0.3780 ca         1 D47      -0.123000
     32 C33         -1.3910     5.0570     0.9160 ca         1 D47      -0.129500
     33 F34          1.4270     5.9010    -1.2710 f          1 D47      -0.181000
     34 Cl35         3.0550    -2.2710    -1.9110 cl         1 D47      -0.186000
     35 H1           3.9260     0.0250     2.3710 ha         1 D47       0.130000
     36 H2          -0.6930    -0.0970    -1.1660 hc         1 D47       0.097200
     37 H3           0.1430    -1.6150    -0.7490 hc         1 D47       0.097200
     38 H4           1.4140    -0.2790     2.5400 h1         1 D47       0.116700
     39 H5           5.0000    -0.2480    -2.4910 ha         1 D47       0.132000
     40 H6           5.5680     1.6000     1.3690 ha         1 D47       0.122000
     41 H7           6.1110     1.4670    -1.0610 ha         1 D47       0.120000
     42 H8          -1.9390    -2.5750     2.1360 hn         1 D47       0.329500
     43 H9          -0.9200    -4.1320     0.1480 ha         1 D47       0.137000
     44 H10         -2.1010    -5.6720    -1.6390 h4         1 D47       0.154000
     45 H11         -3.6880    -1.3560    -1.7510 h4         1 D47       0.156000
     46 H12         -4.2670    -1.8030     1.2340 ha         1 D47       0.133000
     47 H13         -5.9870    -0.0800     1.8400 ha         1 D47       0.121000
     48 H14         -5.3470     2.3450     1.6590 ha         1 D47       0.124000
     49 H15         -3.5440     3.8160     1.4380 hn         1 D47       0.497000
     50 H16         -1.5250     2.4570    -1.2970 ha         1 D47       0.132500
     51 H17          0.4310     3.6680    -2.2360 ha         1 D47       0.130000
     52 H18          0.0570     6.6720     0.8350 ha         1 D47       0.130000
     53 H19         -1.8940     5.4540     1.7930 ha         1 D47       0.132500
     54 O10          0.9300     1.0590     0.4680 o          1 D47      -0.488100
@<TRIPOS>BOND
     1     1     3 ar  
     2     1     9 ar  
     3     1    34 1   
     4     2     6 1   
     5     2    13 1   
     6     2    14 2   
     7     3     4 ar  
     8     3    12 1   
     9     4    10 ar  
    10     4    35 1   
    11     5     7 1   
    12     5     8 1   
    13     5    36 1   
    14     5    37 1   
    15     6     7 1   
    16     6    12 1   
    17     6    38 1   
    18     7    54 2   
    19     8    13 1   
    20     8    15 1   
    21     8    20 1   
    22     9    11 ar  
    23     9    39 1   
    24    10    11 ar  
    25    10    40 1   
    26    11    41 1   
    27    13    42 1   
    28    15    16 1   
    29    15    19 2   
    30    16    17 2   
    31    16    43 1   
    32    17    18 1   
    33    17    44 1   
    34    18    19 1   
    35    19    45 1   
    36    20    21 ar  
    37    20    25 ar  
    38    21    22 ar  
    39    21    46 1   
    40    22    23 ar  
    41    22    47 1   
    42    23    24 ar  
    43    23    48 1   
    44    24    25 ar  
    45    24    26 1   
    46    26    27 1   
    47    26    49 1   
    48    27    28 ar  
    49    27    32 ar  
    50    28    29 ar  
    51    28    50 1   
    52    29    30 ar  
    53    29    51 1   
    54    30    31 ar  
    55    30    33 1   
    56    31    32 ar  
    57    31    52 1   
    58    32    53 1   
@<TRIPOS>SUBSTRUCTURE
     1 D47         1 TEMP              0 ****  ****    0 ROOT
