@<TRIPOS>MOLECULE
D48
   20    21     1     0     0
SMALL
No Charge or Current Charge


@<TRIPOS>ATOM
      1 O1          -2.8580     1.5880     0.0880 oh         1 D48      -0.546100
      2 C1          -1.7000     0.8640     0.0510 ca         1 D48       0.098600
      3 C2          -0.4610     1.5230     0.0520 ca         1 D48      -0.148000
      4 C3           0.7310     0.7750     0.0130 ca         1 D48      -0.027500
      5 C4           1.9780     1.4290     0.0130 ca         1 D48      -0.097500
      6 C5           3.1670     0.6800    -0.0250 ca         1 D48      -0.108500
      7 C6           3.1140    -0.7230    -0.0650 ca         1 D48      -0.108500
      8 C7           1.8720    -1.3820    -0.0660 ca         1 D48      -0.097500
      9 C8           0.6770    -0.6370    -0.0270 ca         1 D48      -0.027500
     10 C9          -0.5680    -1.2950    -0.0280 ca         1 D48      -0.148000
     11 C10         -1.7570    -0.5460     0.0110 ca         1 D48       0.098600
     12 O2          -2.9730    -1.1800     0.0100 oh         1 D48      -0.546100
     13 H1          -3.5920     0.9320     0.0800 ho         1 D48       0.480500
     14 H2          -0.4280     2.6090     0.0820 ha         1 D48       0.123500
     15 H3           2.0280     2.5150     0.0440 ha         1 D48       0.112000
     16 H4           4.1290     1.1880    -0.0250 ha         1 D48       0.112500
     17 H5           4.0350    -1.3020    -0.0950 ha         1 D48       0.112500
     18 H6           1.8400    -2.4680    -0.0970 ha         1 D48       0.112000
     19 H7          -0.6060    -2.3810    -0.0590 ha         1 D48       0.123500
     20 H8          -2.8230    -2.1510    -0.0200 ho         1 D48       0.480500
@<TRIPOS>BOND
     1     1     2 1   
     2     1    13 1   
     3     2     3 ar  
     4     2    11 ar  
     5     3     4 ar  
     6     3    14 1   
     7     4     5 ar  
     8     4     9 ar  
     9     5     6 ar  
    10     5    15 1   
    11     6     7 ar  
    12     6    16 1   
    13     7     8 ar  
    14     7    17 1   
    15     8     9 ar  
    16     8    18 1   
    17     9    10 ar  
    18    10    11 ar  
    19    10    19 1   
    20    11    12 1   
    21    12    20 1   
@<TRIPOS>SUBSTRUCTURE
     1 D48         1 TEMP              0 ****  ****    0 ROOT
