@<TRIPOS>MOLECULE
D48
   20    21     1     0     0
SMALL
abcg2


@<TRIPOS>ATOM
      1 O1          -2.8310     1.5510     0.0870 oh         1 D48      -0.546100
      2 C1          -1.6870     0.8430     0.0480 ca         1 D48       0.098600
      3 C2          -0.4820     1.4880     0.0480 ca         1 D48      -0.148000
      4 C3           0.7330     0.7650     0.0100 ca         1 D48      -0.027500
      5 C4           1.9890     1.4140     0.0130 ca         1 D48      -0.097500
      6 C5           3.1520     0.6910    -0.0220 ca         1 D48      -0.108500
      7 C6           3.1120    -0.7170    -0.0640 ca         1 D48      -0.108500
      8 C7           1.9090    -1.3720    -0.0680 ca         1 D48      -0.097500
      9 C8           0.6940    -0.6520    -0.0310 ca         1 D48      -0.027500
     10 C9          -0.5630    -1.3030    -0.0320 ca         1 D48      -0.148000
     11 C10         -1.7230    -0.5830     0.0070 ca         1 D48       0.098600
     12 O2          -2.9610    -1.1160     0.0110 oh         1 D48      -0.546100
     13 H1          -3.5950     0.9620     0.0850 ho         1 D48       0.480500
     14 H2          -0.4580     2.5720     0.0800 ha         1 D48       0.123500
     15 H3           2.0200     2.4970     0.0440 ha         1 D48       0.112000
     16 H4           4.1070     1.2020    -0.0190 ha         1 D48       0.112500
     17 H5           4.0350    -1.2810    -0.0920 ha         1 D48       0.112500
     18 H6           1.8760    -2.4550    -0.0990 ha         1 D48       0.112000
     19 H7          -0.5990    -2.3870    -0.0630 ha         1 D48       0.123500
     20 H8          -2.9250    -2.0790    -0.0050 ho         1 D48       0.480500
@<TRIPOS>BOND
     1     1     2 1   
     2     1    13 1   
     3     2     3 ar  
     4     2    11 ar  
     5     3     4 ar  
     6     3    14 1   
     7     4     5 ar  
     8     4     9 ar  
     9     5     6 ar  
    10     5    15 1   
    11     6     7 ar  
    12     6    16 1   
    13     7     8 ar  
    14     7    17 1   
    15     8     9 ar  
    16     8    18 1   
    17     9    10 ar  
    18    10    11 ar  
    19    10    19 1   
    20    11    12 1   
    21    12    20 1   
@<TRIPOS>SUBSTRUCTURE
     1 D48         1 TEMP              0 ****  ****    0 ROOT
