@<TRIPOS>MOLECULE
D49
   67    72     1     0     0
SMALL
abcg2


@<TRIPOS>ATOM
      1 O7          -2.8290    -0.8970     0.2370 os         1 D49      -0.334100
      2 C8          -1.8800     0.1530     0.2370 c3         1 D49       0.132600
      3 C9          -0.4980    -0.4590     0.3870 c3         1 D49       0.168300
      4 O10          2.8590     1.1790     0.2310 os         1 D49      -0.357100
      5 C11          4.1790     0.9480     0.1930 ca         1 D49       0.139100
      6 O35         -0.3840    -1.2350     1.5580 oh         1 D49      -0.640000
      7 C36          0.5570     0.6400     0.3090 c3         1 D49      -0.119400
      8 C37          1.9650     0.0810     0.3450 c3         1 D49       0.171600
      9 H2          -1.9290     0.7210    -0.6990 h1         1 D49       0.037200
     10 H3          -2.0760     0.8530     1.0600 h1         1 D49       0.037200
     11 H4          -0.3430    -1.1570    -0.4430 h1         1 D49       0.087700
     12 H8          -0.4630    -0.6530     2.3220 ho         1 D49       0.439000
     13 H9           0.4180     1.2030    -0.6180 hc         1 D49       0.058700
     14 H10          0.4170     1.3460     1.1350 hc         1 D49       0.058700
     15 H11          2.1150    -0.6200    -0.4840 h1         1 D49       0.043200
     16 H12          2.1480    -0.4610     1.2780 h1         1 D49       0.043200
     17 C1           5.0020     2.0720     0.0630 ca         1 D49      -0.179500
     18 C2           6.3710     1.9290     0.0030 ca         1 D49      -0.057500
     19 C3           6.9700     0.6660     0.0710 ca         1 D49      -0.117900
     20 C4           6.1420    -0.4440     0.2080 ca         1 D49      -0.057500
     21 C5           4.7620    -0.3150     0.2700 ca         1 D49      -0.179500
     22 C13          8.4220     0.5590    -0.0110 cc         1 D49       0.429400
     23 N1           9.0920    -0.6240     0.0500 na         1 D49      -0.314600
     24 C7          10.4300    -0.3490    -0.0670 ca         1 D49      -0.085200
     25 C10         10.4920     1.0470    -0.1980 ca         1 D49       0.049400
     26 N2           9.2300     1.5800    -0.1600 nd         1 D49      -0.587100
     27 C6          11.7350     1.6650    -0.3400 ca         1 D49      -0.100000
     28 C12         12.8610     0.8650    -0.3470 ca         1 D49      -0.096000
     29 C14         12.7910    -0.5360    -0.2150 ca         1 D49      -0.112600
     30 C15         11.5570    -1.1570    -0.0720 ca         1 D49      -0.107000
     31 C16         14.0640    -1.3720    -0.2290 c          1 D49       0.711600
     32 O2          15.1390    -0.7560    -0.3710 o          1 D49      -0.720000
     33 O1          13.9260    -2.6040    -0.0990 o          1 D49      -0.720000
     34 C17         -4.1340    -0.5980     0.1590 ca         1 D49       0.136100
     35 C18         -5.0220    -1.6770     0.2070 ca         1 D49      -0.178500
     36 C19         -6.3810    -1.4640     0.1340 ca         1 D49      -0.057500
     37 C20         -6.9040    -0.1720     0.0120 ca         1 D49      -0.116900
     38 C21         -6.0110     0.8940    -0.0410 ca         1 D49      -0.057500
     39 C22         -4.6410     0.6940     0.0320 ca         1 D49      -0.178500
     40 C32         -8.3500     0.0110    -0.0590 cc         1 D49       0.426400
     41 N3          -8.9510     1.2350    -0.0180 na         1 D49      -0.321600
     42 C24        -10.3020     1.0330    -0.0970 ca         1 D49      -0.083200
     43 C25        -10.4500    -0.3600    -0.1880 ca         1 D49       0.045400
     44 N4          -9.2160    -0.9630    -0.1630 nd         1 D49      -0.571100
     45 C27        -11.7220    -0.9200    -0.2840 ca         1 D49      -0.029000
     46 C28        -12.8250    -0.0800    -0.2840 ca         1 D49      -0.163600
     47 C29        -12.6430     1.3130    -0.1930 ca         1 D49      -0.045000
     48 C30        -11.3920     1.8950    -0.0980 ca         1 D49      -0.175000
     49 C31        -14.2300    -0.6590    -0.3810 c          1 D49       0.714600
     50 O3         -14.3200    -1.9010    -0.4510 o          1 D49      -0.723000
     51 O4         -15.1740     0.1550    -0.3810 o          1 D49      -0.723000
     52 H1           4.5550     3.0560     0.0070 ha         1 D49       0.117500
     53 H5           6.9930     2.8080    -0.1020 ha         1 D49       0.123500
     54 H6           6.5510    -1.4450     0.2680 ha         1 D49       0.123500
     55 H7           4.1630    -1.2090     0.3740 ha         1 D49       0.117500
     56 H13          8.6920    -1.5400     0.1690 hn         1 D49       0.344000
     57 H14         11.8120     2.7410    -0.4420 ha         1 D49       0.103000
     58 H15         13.8350     1.3210    -0.4580 ha         1 D49       0.130000
     59 H16         11.4880    -2.2320     0.0270 ha         1 D49       0.133000
     60 H18         -4.6330    -2.6830     0.3060 ha         1 D49       0.117500
     61 H19         -7.0550    -2.3080     0.1760 ha         1 D49       0.123500
     62 H20         -6.3600     1.9130    -0.1510 ha         1 D49       0.123500
     63 H21         -3.9890     1.5550    -0.0170 ha         1 D49       0.117500
     64 H22         -8.4980     2.1260     0.1020 hn         1 D49       0.338000
     65 H23        -11.8490    -1.9930    -0.3530 ha         1 D49       0.144000
     66 H24        -13.5180     1.9490    -0.1970 ha         1 D49       0.129000
     67 H25        -11.2720     2.9680    -0.0300 ha         1 D49       0.093000
@<TRIPOS>BOND
     1     1     2 1   
     2     1    34 1   
     3     2     3 1   
     4     2     9 1   
     5     2    10 1   
     6     3     6 1   
     7     3     7 1   
     8     3    11 1   
     9     4     5 1   
    10     4     8 1   
    11     5    17 ar  
    12     5    21 ar  
    13     6    12 1   
    14     7     8 1   
    15     7    13 1   
    16     7    14 1   
    17     8    15 1   
    18     8    16 1   
    19    17    18 ar  
    20    17    52 1   
    21    18    19 ar  
    22    18    53 1   
    23    19    20 ar  
    24    19    22 1   
    25    20    21 ar  
    26    20    54 1   
    27    21    55 1   
    28    22    23 1   
    29    22    26 2   
    30    23    24 1   
    31    23    56 1   
    32    24    25 ar  
    33    24    30 ar  
    34    25    26 1   
    35    25    27 ar  
    36    27    28 ar  
    37    27    57 1   
    38    28    29 ar  
    39    28    58 1   
    40    29    30 ar  
    41    29    31 1   
    42    30    59 1   
    43    31    32 1   
    44    31    33 1   
    45    34    35 ar  
    46    34    39 ar  
    47    35    36 ar  
    48    35    60 1   
    49    36    37 ar  
    50    36    61 1   
    51    37    38 ar  
    52    37    40 1   
    53    38    39 ar  
    54    38    62 1   
    55    39    63 1   
    56    40    41 1   
    57    40    44 2   
    58    41    42 1   
    59    41    64 1   
    60    42    43 ar  
    61    42    48 ar  
    62    43    44 1   
    63    43    45 ar  
    64    45    46 ar  
    65    45    65 1   
    66    46    47 ar  
    67    46    49 1   
    68    47    48 ar  
    69    47    66 1   
    70    48    67 1   
    71    49    50 1   
    72    49    51 1   
@<TRIPOS>SUBSTRUCTURE
     1 D49         1 TEMP              0 ****  ****    0 ROOT
