@<TRIPOS>MOLECULE
D49
   67    72     1     0     0
SMALL
No Charge or Current Charge


@<TRIPOS>ATOM
      1 O7          -2.8870    -0.8060     0.1910 os         1 D49      -0.334100
      2 C8          -1.9190     0.2580     0.1010 c3         1 D49       0.132600
      3 C9          -0.5030    -0.3680     0.1850 c3         1 D49       0.168300
      4 O10          2.9610     1.2070     0.1300 os         1 D49      -0.357100
      5 C11          4.3270     1.0160     0.1000 ca         1 D49       0.139100
      6 O35         -0.4040    -1.1790     1.3670 oh         1 D49      -0.640000
      7 C36          0.6120     0.7020     0.2020 c3         1 D49      -0.119400
      8 C37          2.0350     0.1090     0.1870 c3         1 D49       0.171600
      9 H2          -2.0210     0.7960    -0.8500 h1         1 D49       0.037200
     10 H3          -2.0530     0.9740     0.9230 h1         1 D49       0.037200
     11 H4          -0.3670    -0.9920    -0.7100 h1         1 D49       0.087700
     12 H8          -1.2700    -1.6370     1.4490 ho         1 D49       0.439000
     13 H9           0.4940     1.3510    -0.6740 hc         1 D49       0.058700
     14 H10          0.4970     1.3370     1.0890 hc         1 D49       0.058700
     15 H11          2.1520    -0.5420    -0.6900 h1         1 D49       0.043200
     16 H12          2.1990    -0.4890     1.0940 h1         1 D49       0.043200
     17 C1           5.1480     2.1500     0.0430 ca         1 D49      -0.179500
     18 C2           6.5470     2.0200     0.0110 ca         1 D49      -0.057500
     19 C3           7.1520     0.7430     0.0350 ca         1 D49      -0.117900
     20 C4           6.3180    -0.3980     0.0930 ca         1 D49      -0.057500
     21 C5           4.9180    -0.2640     0.1250 ca         1 D49      -0.179500
     22 C13          8.6180     0.6140     0.0010 cc         1 D49       0.429400
     23 N1           9.2980    -0.6040     0.0210 na         1 D49      -0.314600
     24 C7          10.6280    -0.3220    -0.0230 ca         1 D49      -0.085200
     25 C10         10.7380     1.0340    -0.0680 ca         1 D49       0.049400
     26 N2           9.4890     1.6450    -0.0540 nd         1 D49      -0.587100
     27 C6          11.9970     1.6430    -0.1200 ca         1 D49      -0.100000
     28 C12         13.1440     0.8180    -0.1240 ca         1 D49      -0.096000
     29 C14         13.0300    -0.6030    -0.0770 ca         1 D49      -0.112600
     30 C15         11.7340    -1.1810    -0.0250 ca         1 D49      -0.107000
     31 C16         14.2720    -1.4830    -0.0820 c          1 D49       0.711600
     32 O2          15.3710    -0.9460    -0.1280 o          1 D49      -0.720000
     33 O1          14.1310    -2.6970    -0.0400 o          1 D49      -0.720000
     34 C17         -4.2450    -0.5700     0.1420 ca         1 D49       0.136100
     35 C18         -5.1070    -1.6710     0.2340 ca         1 D49      -0.178500
     36 C19         -6.5010    -1.4940     0.1890 ca         1 D49      -0.057500
     37 C20         -7.0580    -0.2030     0.0520 ca         1 D49      -0.116900
     38 C21         -6.1830     0.9040    -0.0400 ca         1 D49      -0.057500
     39 C22         -4.7890     0.7240     0.0040 ca         1 D49      -0.178500
     40 C32         -8.5190    -0.0250     0.0060 cc         1 D49       0.426400
     41 N3          -9.1540     1.2100    -0.1270 na         1 D49      -0.321600
     42 C24        -10.4920     0.9740    -0.1300 ca         1 D49      -0.083200
     43 C25        -10.6550    -0.3710    -0.0010 ca         1 D49       0.045400
     44 N4          -9.4270    -1.0220     0.0860 nd         1 D49      -0.571100
     45 C27        -11.9390    -0.9370     0.0290 ca         1 D49      -0.029000
     46 C28        -13.0700    -0.0820    -0.0770 ca         1 D49      -0.163600
     47 C29        -12.8660     1.3220    -0.2100 ca         1 D49      -0.045000
     48 C30        -11.5630     1.8640    -0.2380 ca         1 D49      -0.175000
     49 C31        -14.4710    -0.6590    -0.0470 c          1 D49       0.714600
     50 O3         -14.6010    -1.8700     0.0680 o          1 D49      -0.723000
     51 O4         -15.4210     0.1040    -0.1410 o          1 D49      -0.723000
     52 H1           4.6970     3.1390     0.0240 ha         1 D49       0.117500
     53 H5           7.1590     2.9180    -0.0340 ha         1 D49       0.123500
     54 H6           6.7450    -1.3980     0.1130 ha         1 D49       0.123500
     55 H7           4.3120    -1.1650     0.1700 ha         1 D49       0.117500
     56 H13          8.8740    -1.5200     0.0610 hn         1 D49       0.344000
     57 H14         12.0900     2.7260    -0.1570 ha         1 D49       0.103000
     58 H15         14.1250     1.2860    -0.1650 ha         1 D49       0.130000
     59 H16         11.5950    -2.2590     0.0130 ha         1 D49       0.133000
     60 H18         -4.6930    -2.6710     0.3400 ha         1 D49       0.117500
     61 H19         -7.1460    -2.3670     0.2630 ha         1 D49       0.123500
     62 H20         -6.5740     1.9130    -0.1470 ha         1 D49       0.123500
     63 H21         -4.1500     1.5990    -0.0700 ha         1 D49       0.117500
     64 H22         -8.6970     2.1070    -0.2060 hn         1 D49       0.338000
     65 H23        -12.0520    -2.0130     0.1320 ha         1 D49       0.144000
     66 H24        -13.7170     1.9960    -0.2920 ha         1 D49       0.129000
     67 H25        -11.4020     2.9340    -0.3390 ha         1 D49       0.093000
@<TRIPOS>BOND
     1     1     2 1   
     2     1    34 1   
     3     2     3 1   
     4     2     9 1   
     5     2    10 1   
     6     3     6 1   
     7     3     7 1   
     8     3    11 1   
     9     4     5 1   
    10     4     8 1   
    11     5    17 ar  
    12     5    21 ar  
    13     6    12 1   
    14     7     8 1   
    15     7    13 1   
    16     7    14 1   
    17     8    15 1   
    18     8    16 1   
    19    17    18 ar  
    20    17    52 1   
    21    18    19 ar  
    22    18    53 1   
    23    19    20 ar  
    24    19    22 1   
    25    20    21 ar  
    26    20    54 1   
    27    21    55 1   
    28    22    23 1   
    29    22    26 2   
    30    23    24 1   
    31    23    56 1   
    32    24    25 ar  
    33    24    30 ar  
    34    25    26 1   
    35    25    27 ar  
    36    27    28 ar  
    37    27    57 1   
    38    28    29 ar  
    39    28    58 1   
    40    29    30 ar  
    41    29    31 1   
    42    30    59 1   
    43    31    32 1   
    44    31    33 1   
    45    34    35 ar  
    46    34    39 ar  
    47    35    36 ar  
    48    35    60 1   
    49    36    37 ar  
    50    36    61 1   
    51    37    38 ar  
    52    37    40 1   
    53    38    39 ar  
    54    38    62 1   
    55    39    63 1   
    56    40    41 1   
    57    40    44 2   
    58    41    42 1   
    59    41    64 1   
    60    42    43 ar  
    61    42    48 ar  
    62    43    44 1   
    63    43    45 ar  
    64    45    46 ar  
    65    45    65 1   
    66    46    47 ar  
    67    46    49 1   
    68    47    48 ar  
    69    47    66 1   
    70    48    67 1   
    71    49    50 1   
    72    49    51 1   
@<TRIPOS>SUBSTRUCTURE
     1 D49         1 TEMP              0 ****  ****    0 ROOT
