@<TRIPOS>MOLECULE
D4A
   53    57     1     0     0
SMALL
No Charge or Current Charge


@<TRIPOS>ATOM
      1 C4          -5.5530    -1.2620    -0.1170 ca         1 D4A      -0.118500
      2 C14         -1.3010     4.1680    -0.5900 cc         1 D4A      -0.230000
      3 C5          -4.1730    -3.0150    -1.0840 ca         1 D4A      -0.118500
      4 C6          -6.6990    -2.0580    -0.3090 ca         1 D4A      -0.128500
      5 C11         -3.3720     0.3110     1.7480 ca         1 D4A      -0.212000
      6 C7          -5.3180    -3.8130    -1.2750 ca         1 D4A      -0.128500
      7 C8           4.9740    -0.3560     0.3750 ca         1 D4A      -0.098000
      8 C9           5.8080    -2.7770    -0.7820 ca         1 D4A      -0.092000
      9 C10         -1.6770     1.9810     2.0720 ca         1 D4A      -0.179000
     10 C12          0.8300     4.8160     0.0940 cd         1 D4A      -0.095000
     11 C13          0.3550     6.0330    -0.3220 cc         1 D4A      -0.250000
     12 C3          -2.8310     1.3340     2.5400 ca         1 D4A      -0.038000
     13 C1           6.1860    -0.4160    -0.3330 ca         1 D4A      -0.096000
     14 C2           6.6040    -1.6260    -0.9130 ca         1 D4A      -0.106000
     15 C15         -0.1060     3.7500    -0.0490 cd         1 D4A      -0.104300
     16 C16         -4.2810    -1.7430    -0.4910 ca         1 D4A       0.287000
     17 C17         -6.5770    -3.3320    -0.8830 ca         1 D4A       0.153000
     18 C18          4.1710    -1.5060     0.5070 ca         1 D4A      -0.105000
     19 C19          4.5960    -2.7200    -0.0730 ca         1 D4A       0.126000
     20 C20         -1.0980     1.5840     0.8470 ca         1 D4A       0.363300
     21 C21         -2.7440     0.0050     0.5340 ca         1 D4A       0.625900
     22 C22          1.9030     0.1140     0.8220 ce         1 D4A      -0.325600
     23 C23          1.4630     0.3030    -0.4320 c2         1 D4A       0.247900
     24 C24          1.8010     1.1990     1.8520 c          1 D4A       0.696300
     25 C25          0.8700     1.6130    -0.8750 c6         1 D4A      -0.072200
     26 C26          0.1950     2.3050     0.3340 c6         1 D4A       0.233000
     27 N27         -1.6410     0.5940     0.0890 nb         1 D4A      -0.761000
     28 N28         -3.1310    -0.9740    -0.3270 nu         1 D4A      -0.961900
     29 O30          1.1390     2.3280     1.4350 os         1 D4A      -0.441100
     30 O31          1.5390    -0.6270    -1.3920 oh         1 D4A      -0.500100
     31 F32         -7.6760    -4.0950    -1.0690 f          1 D4A      -0.177000
     32 S33         -1.2940     5.8970    -0.9160 ss         1 D4A       0.219000
     33 S34          2.6290    -1.4140     1.4130 ss         1 D4A      -0.014600
     34 Cl35         3.6150    -4.1790     0.0610 cl         1 D4A      -0.190000
     35 H1          -5.6630    -0.2660     0.2990 ha         1 D4A       0.126000
     36 H2          -2.1870     3.5920    -0.8240 h4         1 D4A       0.150000
     37 H3          -3.2000    -3.3910    -1.3880 ha         1 D4A       0.126000
     38 H4          -7.6790    -1.6850    -0.0210 ha         1 D4A       0.135000
     39 H5          -4.2440    -0.2390     2.0820 ha         1 D4A       0.133000
     40 H6          -5.2300    -4.7980    -1.7260 ha         1 D4A       0.135000
     41 H8           6.1300    -3.7140    -1.2300 ha         1 D4A       0.129000
     42 H9          -1.2260     2.7810     2.6520 ha         1 D4A       0.146000
     43 H10          1.8310     4.6820     0.4950 ha         1 D4A       0.148000
     44 H11          0.8470     6.9970    -0.3260 h4         1 D4A       0.154000
     45 H12         -3.2860     1.6110     3.4890 ha         1 D4A       0.122000
     46 H13          6.8020     0.4750    -0.4320 ha         1 D4A       0.117000
     47 H14          7.5420    -1.6710    -1.4620 ha         1 D4A       0.119000
     48 H15          1.6710     2.2480    -1.2730 hc         1 D4A       0.099700
     49 H16          0.1520     1.4680    -1.6920 hc         1 D4A       0.099700
     50 H17         -2.3750    -1.1720    -0.9750 hn         1 D4A       0.507000
     51 H18          1.9530    -1.4110    -0.9780 ho         1 D4A       0.502000
     52 O29          2.2860     1.1180     2.9700 o          1 D4A      -0.478000
     53 H7           4.6630     0.5840     0.8250 ha         1 D4A       0.120000
@<TRIPOS>BOND
     1     1     4 ar  
     2     1    16 ar  
     3     1    35 1   
     4     2    15 2   
     5     2    32 1   
     6     2    36 1   
     7     3     6 ar  
     8     3    16 ar  
     9     3    37 1   
    10     4    17 ar  
    11     4    38 1   
    12     5    12 ar  
    13     5    21 ar  
    14     5    39 1   
    15     6    17 ar  
    16     6    40 1   
    17     7    13 ar  
    18     7    18 ar  
    19     7    53 1   
    20     8    14 ar  
    21     8    19 ar  
    22     8    41 1   
    23     9    12 ar  
    24     9    20 ar  
    25     9    42 1   
    26    10    11 2   
    27    10    15 1   
    28    10    43 1   
    29    11    32 1   
    30    11    44 1   
    31    12    45 1   
    32    13    14 ar  
    33    13    46 1   
    34    14    47 1   
    35    15    26 1   
    36    16    28 1   
    37    17    31 1   
    38    18    19 ar  
    39    18    33 1   
    40    19    34 1   
    41    20    26 1   
    42    20    27 ar  
    43    21    27 ar  
    44    21    28 1   
    45    22    23 2   
    46    22    24 1   
    47    22    33 1   
    48    23    25 1   
    49    23    30 1   
    50    24    29 1   
    51    24    52 2   
    52    25    26 1   
    53    25    48 1   
    54    25    49 1   
    55    26    29 1   
    56    28    50 1   
    57    30    51 1   
@<TRIPOS>SUBSTRUCTURE
     1 D4A         1 TEMP              0 ****  ****    0 ROOT
