@<TRIPOS>MOLECULE
D4A
   53    57     1     0     0
SMALL
bcc


@<TRIPOS>ATOM
      1 C4          -5.7500    -0.7340     0.2010 ca         1 D4A      -0.136500
      2 C14         -0.5180     3.9410    -1.4960 cc         1 D4A      -0.103100
      3 C5          -4.9140    -2.4280    -1.2830 ca         1 D4A      -0.136500
      4 C6          -6.9370    -1.4370     0.3390 ca         1 D4A      -0.146500
      5 C11         -2.9760    -0.1300     1.5810 ca         1 D4A      -0.295300
      6 C7          -6.1080    -3.1230    -1.1740 ca         1 D4A      -0.146500
      7 C8           4.9780    -0.3280    -0.2390 ca         1 D4A      -0.116000
      8 C9           6.6580    -2.3810     0.5840 ca         1 D4A      -0.110000
      9 C10         -1.0020     1.1860     1.9830 ca         1 D4A      -0.262300
     10 C12         -0.3580     4.3980     0.7670 cd         1 D4A      -0.113000
     11 C13         -0.8370     5.5840     0.3080 cc         1 D4A      -0.123100
     12 C3          -2.0970     0.4690     2.4560 ca         1 D4A      -0.056000
     13 C1           6.3420    -0.2530    -0.4780 ca         1 D4A      -0.114000
     14 C2           7.1840    -1.2760    -0.0670 ca         1 D4A      -0.124000
     15 C15         -0.1670     3.4450    -0.2780 cd         1 D4A      -0.104300
     16 C16         -4.7200    -1.2300    -0.5960 ca         1 D4A       0.148600
     17 C17         -7.0980    -2.6210    -0.3530 ca         1 D4A       0.117900
     18 C18          4.4360    -1.4270     0.4170 ca         1 D4A       0.021900
     19 C19          5.2940    -2.4470     0.8200 ca         1 D4A       0.034400
     20 C20         -0.8380     1.2510     0.6100 ca         1 D4A       0.428600
     21 C21         -2.7320     0.0180     0.2060 ca         1 D4A       0.691200
     22 C22          2.0280    -0.0790     0.2770 ce         1 D4A      -0.325600
     23 C23          1.4350     0.0630    -0.9360 c2         1 D4A       0.247900
     24 C24          2.1100     1.0490     1.1970 c          1 D4A       0.771800
     25 C25          0.8000     1.3590    -1.3000 c6         1 D4A      -0.072200
     26 C26          0.3070     2.0380    -0.0310 c6         1 D4A       0.209800
     27 N27         -1.6790     0.6940    -0.2460 nb         1 D4A      -0.761000
     28 N28         -3.5210    -0.5310    -0.7660 nu         1 D4A      -0.768300
     29 O30          1.3860     2.1440     0.9020 os         1 D4A      -0.417900
     30 O31          1.3970    -0.8590    -1.8640 oh         1 D4A      -0.461100
     31 F32         -8.2500    -3.3010    -0.2260 f          1 D4A      -0.141900
     32 S33         -1.0720     5.5560    -1.3890 ss         1 D4A      -0.070800
     33 S34          2.7080    -1.6140     0.7650 ss         1 D4A      -0.141500
     34 CL35         4.6400    -3.8340     1.6270 cl         1 D4A      -0.098400
     35 H1          -5.6410     0.2150     0.7090 ha         1 D4A       0.144000
     36 H2          -0.4850     3.4490    -2.4560 h4         1 D4A       0.168000
     37 H3          -4.1230    -2.8230    -1.9080 ha         1 D4A       0.144000
     38 H4          -7.7320    -1.0510     0.9640 ha         1 D4A       0.153000
     39 H5          -3.8110    -0.7050     1.9520 ha         1 D4A       0.151000
     40 H6          -6.2540    -4.0510    -1.7110 ha         1 D4A       0.153000
     41 H8           7.3000    -3.1890     0.9080 ha         1 D4A       0.147000
     42 H9          -0.3190     1.6610     2.6730 ha         1 D4A       0.164000
     43 H10         -0.1470     4.2130     1.8100 ha         1 D4A       0.166000
     44 H11         -1.0640     6.4710     0.8790 h4         1 D4A       0.172000
     45 H12         -2.2590     0.3700     3.5220 ha         1 D4A       0.140000
     46 H13          6.7440     0.6120    -0.9880 ha         1 D4A       0.135000
     47 H14          8.2480    -1.2210    -0.2520 ha         1 D4A       0.137000
     48 H15          1.5400     1.9880    -1.8040 hc         1 D4A       0.099700
     49 H16         -0.0220     1.1910    -1.9930 hc         1 D4A       0.099700
     50 H17         -3.1080    -0.5400    -1.6860 hn         1 D4A       0.451800
     51 H18          1.8470    -1.6690    -1.5620 ho         1 D4A       0.463000
     52 O29          2.8140     1.0730     2.1740 o          1 D4A      -0.553500
     53 H7           4.3370     0.4770    -0.5730 ha         1 D4A       0.138000
@<TRIPOS>BOND
     1     1     4 ar  
     2     1    16 ar  
     3     1    35 1   
     4     2    15 2   
     5     2    32 1   
     6     2    36 1   
     7     3     6 ar  
     8     3    16 ar  
     9     3    37 1   
    10     4    17 ar  
    11     4    38 1   
    12     5    12 ar  
    13     5    21 ar  
    14     5    39 1   
    15     6    17 ar  
    16     6    40 1   
    17     7    13 ar  
    18     7    18 ar  
    19     7    53 1   
    20     8    14 ar  
    21     8    19 ar  
    22     8    41 1   
    23     9    12 ar  
    24     9    20 ar  
    25     9    42 1   
    26    10    11 2   
    27    10    15 1   
    28    10    43 1   
    29    11    32 1   
    30    11    44 1   
    31    12    45 1   
    32    13    14 ar  
    33    13    46 1   
    34    14    47 1   
    35    15    26 1   
    36    16    28 1   
    37    17    31 1   
    38    18    19 ar  
    39    18    33 1   
    40    19    34 1   
    41    20    26 1   
    42    20    27 ar  
    43    21    27 ar  
    44    21    28 1   
    45    22    23 2   
    46    22    24 1   
    47    22    33 1   
    48    23    25 1   
    49    23    30 1   
    50    24    29 1   
    51    24    52 2   
    52    25    26 1   
    53    25    48 1   
    54    25    49 1   
    55    26    29 1   
    56    28    50 1   
    57    30    51 1   
@<TRIPOS>SUBSTRUCTURE
     1 D4A         1 TEMP              0 ****  ****    0 ROOT
