@<TRIPOS>MOLECULE
D4C
   37    40     1     0     0
SMALL
abcg2


@<TRIPOS>ATOM
      1 C4         -12.6640    30.7620    -6.4100 ca         1 D4C      -0.079000
      2 C5         -13.5480    29.9210    -5.7490 ca         1 D4C      -0.122000
      3 C6         -13.2200    28.5870    -5.5430 ca         1 D4C      -0.066000
      4 C10        -14.9820    24.9780    -8.1200 ca         1 D4C      -0.106000
      5 C13        -14.6020    24.6060    -5.3580 ca         1 D4C      -0.042800
      6 C17        -14.1050    24.6870    -4.0220 cc         1 D4C      -0.256200
      7 C20        -17.9050    23.1080    -7.3110 ca         1 D4C       0.401900
      8 C1         -12.0110    28.0680    -5.9920 ca         1 D4C      -0.156300
      9 C11        -13.8690    25.5090    -7.5320 ca         1 D4C      -0.069000
     10 C12        -13.6920    25.3210    -6.1540 ca         1 D4C      -0.099200
     11 C14        -15.7370    24.0230    -5.9910 ca         1 D4C      -0.177000
     12 C16        -12.9460    25.4140    -4.0690 cd         1 D4C      -0.166100
     13 C18        -16.7300    23.2080    -5.3600 ca         1 D4C       0.416900
     14 C2         -11.1530    28.9390    -6.6460 ca         1 D4C       0.171000
     15 C3         -11.4490    30.2690    -6.8660 ca         1 D4C      -0.149000
     16 C9         -15.9390    24.2390    -7.3700 ca         1 D4C       0.089000
     17 F7          -9.9730    28.4610    -7.0820 f          1 D4C      -0.184000
     18 N15        -12.6860    25.7870    -5.3510 na         1 D4C      -0.066700
     19 N19        -17.7940    22.7860    -6.0100 nb         1 D4C      -0.331000
     20 N21        -17.0270    23.7740    -8.0270 nb         1 D4C      -0.282000
     21 N23        -19.0550    22.7130    -7.9170 nv         1 D4C      -1.048900
     22 H1         -12.9140    31.8020    -6.5730 ha         1 D4C       0.120000
     23 H2         -14.4950    30.3010    -5.3910 ha         1 D4C       0.123000
     24 H3         -13.9210    27.9450    -5.0250 ha         1 D4C       0.133000
     25 H4         -11.1730    26.2150    -6.6940 h1         1 D4C       0.073200
     26 H5         -10.8150    26.5700    -5.0230 h1         1 D4C       0.073200
     27 H6         -15.1620    25.1150    -9.1780 ha         1 D4C       0.132000
     28 H7         -14.5300    24.3000    -3.1110 ha         1 D4C       0.200000
     29 H8         -13.1540    26.0730    -8.1170 ha         1 D4C       0.119000
     30 H9         -12.2800    25.6960    -3.2690 h4         1 D4C       0.214000
     31 H10        -10.7420    30.9040    -7.3830 ha         1 D4C       0.134000
     32 H11        -17.2870    22.1670    -3.7340 hn         1 D4C       0.481000
     33 H12        -15.7240    22.8080    -3.6280 hn         1 D4C       0.481000
     34 H13        -19.0620    22.7060    -8.9230 hn         1 D4C       0.480500
     35 H14        -19.5810    21.9770    -7.4770 hn         1 D4C       0.480500
     36 C8         -11.6010    26.6300    -5.7790 c3         1 D4C       0.127900
     37 N22        -16.6300    22.8590    -4.0600 nv         1 D4C      -1.053900
@<TRIPOS>BOND
     1     1     2 ar  
     2     1    15 ar  
     3     1    22 1   
     4     2     3 ar  
     5     2    23 1   
     6     3     8 ar  
     7     3    24 1   
     8     4     9 ar  
     9     4    16 ar  
    10     4    27 1   
    11     5     6 1   
    12     5    10 ar  
    13     5    11 ar  
    14     6    12 2   
    15     6    28 1   
    16     7    19 ar  
    17     7    20 ar  
    18     7    21 1   
    19     8    14 ar  
    20     8    36 1   
    21     9    10 ar  
    22     9    29 1   
    23    10    18 1   
    24    11    13 ar  
    25    11    16 ar  
    26    12    18 1   
    27    12    30 1   
    28    13    19 ar  
    29    13    37 1   
    30    14    15 ar  
    31    14    17 1   
    32    15    31 1   
    33    16    20 ar  
    34    18    36 1   
    35    21    34 1   
    36    21    35 1   
    37    25    36 1   
    38    26    36 1   
    39    32    37 1   
    40    33    37 1   
@<TRIPOS>SUBSTRUCTURE
     1 D4C         1 TEMP              0 ****  ****    0 ROOT
