@<TRIPOS>MOLECULE
D4C
   37    40     1     0     0
SMALL
No Charge or Current Charge


@<TRIPOS>ATOM
      1 C4         -12.6430    30.7820    -6.5930 ca         1 D4C      -0.079000
      2 C5         -13.4420    30.0460    -5.7030 ca         1 D4C      -0.122000
      3 C6         -13.1090    28.7170    -5.3840 ca         1 D4C      -0.066000
      4 C10        -15.0410    25.1550    -8.0550 ca         1 D4C      -0.106000
      5 C13        -14.6290    24.5890    -5.3560 ca         1 D4C      -0.042800
      6 C17        -14.1550    24.5430    -3.9940 cc         1 D4C      -0.256200
      7 C20        -17.8930    23.0920    -7.3240 ca         1 D4C       0.401900
      8 C1         -11.9710    28.1070    -5.9590 ca         1 D4C      -0.156300
      9 C11        -13.9090    25.6720    -7.4000 ca         1 D4C      -0.069000
     10 C12        -13.7310    25.3710    -6.0420 ca         1 D4C      -0.099200
     11 C14        -15.7670    24.0340    -5.9940 ca         1 D4C      -0.177000
     12 C16        -12.9830    25.2830    -3.9250 cd         1 D4C      -0.166100
     13 C18        -16.7310    23.1920    -5.3850 ca         1 D4C       0.416900
     14 C2         -11.1730    28.8600    -6.8460 ca         1 D4C       0.171000
     15 C3         -11.5060    30.1870    -7.1630 ca         1 D4C      -0.149000
     16 C9         -15.9720    24.3420    -7.3700 ca         1 D4C       0.089000
     17 F7         -10.0700    28.3100    -7.4030 f          1 D4C      -0.184000
     18 N15        -12.7050    25.7960    -5.2070 na         1 D4C      -0.066700
     19 N19        -17.7940    22.7220    -6.0470 nb         1 D4C      -0.331000
     20 N21        -17.0500    23.8610    -8.0230 nb         1 D4C      -0.282000
     21 N23        -18.9660    22.6170    -7.9950 nv         1 D4C      -1.048900
     22 H1         -12.9030    31.8100    -6.8380 ha         1 D4C       0.120000
     23 H2         -14.3210    30.5060    -5.2570 ha         1 D4C       0.123000
     24 H3         -13.7410    28.1690    -4.6880 ha         1 D4C       0.133000
     25 H4         -11.1160    26.1940    -6.5010 h1         1 D4C       0.073200
     26 H5         -10.8390    26.6710    -4.8240 h1         1 D4C       0.073200
     27 H6         -15.2000    25.3860    -9.1060 ha         1 D4C       0.132000
     28 H7         -14.6240    24.0790    -3.1320 ha         1 D4C       0.200000
     29 H8         -13.2010    26.2980    -7.9380 ha         1 D4C       0.119000
     30 H9         -12.3450    25.4960    -3.0710 h4         1 D4C       0.214000
     31 H10        -10.8810    30.7510    -7.8500 ha         1 D4C       0.134000
     32 H11        -17.2960    21.9770    -3.8600 hn         1 D4C       0.481000
     33 H12        -15.7400    22.6870    -3.6860 hn         1 D4C       0.481000
     34 H13        -18.9650    22.6790    -9.0100 hn         1 D4C       0.480500
     35 H14        -19.5000    21.8580    -7.5800 hn         1 D4C       0.480500
     36 C8         -11.5870    26.6610    -5.6270 c3         1 D4C       0.127900
     37 N22        -16.6600    22.7290    -4.1100 nv         1 D4C      -1.053900
@<TRIPOS>BOND
     1     1     2 ar  
     2     1    15 ar  
     3     1    22 1   
     4     2     3 ar  
     5     2    23 1   
     6     3     8 ar  
     7     3    24 1   
     8     4     9 ar  
     9     4    16 ar  
    10     4    27 1   
    11     5     6 1   
    12     5    10 ar  
    13     5    11 ar  
    14     6    12 2   
    15     6    28 1   
    16     7    19 ar  
    17     7    20 ar  
    18     7    21 1   
    19     8    14 ar  
    20     8    36 1   
    21     9    10 ar  
    22     9    29 1   
    23    10    18 1   
    24    11    13 ar  
    25    11    16 ar  
    26    12    18 1   
    27    12    30 1   
    28    13    19 ar  
    29    13    37 1   
    30    14    15 ar  
    31    14    17 1   
    32    15    31 1   
    33    16    20 ar  
    34    18    36 1   
    35    21    34 1   
    36    21    35 1   
    37    25    36 1   
    38    26    36 1   
    39    32    37 1   
    40    33    37 1   
@<TRIPOS>SUBSTRUCTURE
     1 D4C         1 TEMP              0 ****  ****    0 ROOT
