@<TRIPOS>MOLECULE
D4E
   73    76     1     0     0
SMALL
No Charge or Current Charge


@<TRIPOS>ATOM
      1 C10         85.7000    48.0890    42.5040 c3         1 D4E      -0.083400
      2 C2          86.0920    46.8110    47.0410 c          1 D4E       0.648100
      3 C4          83.6130    47.1680    47.5710 c6         1 D4E       0.081000
      4 C6          82.7030    48.4940    45.6140 c          1 D4E       0.571000
      5 C9          84.2090    48.5330    42.4280 c3         1 D4E      -0.054700
      6 N3          84.7320    46.7860    46.6780 n          1 D4E      -0.396800
      7 O1          86.9800    46.5660    46.2400 o          1 D4E      -0.616100
      8 F42         89.4380    43.6850    51.0660 f          1 D4E      -0.117000
      9 C38         90.2290    44.3480    50.1920 c3         1 D4E       0.302000
     10 F40         90.3380    43.5990    49.0710 f          1 D4E      -0.117000
     11 F41         91.4600    44.4510    50.7420 f          1 D4E      -0.117000
     12 C37         89.6590    45.7490    49.8740 c3         1 D4E      -0.150400
     13 C36         88.2450    45.7390    49.2380 c3         1 D4E      -0.102400
     14 C35         87.7130    47.1540    48.9330 c3         1 D4E       0.114000
     15 N34         86.3710    47.1210    48.3500 ns         1 D4E      -0.515900
     16 C17         84.3280    46.5980    45.2670 c6         1 D4E       0.251100
     17 N7          83.5150    47.7220    44.7550 n          1 D4E      -0.427800
     18 C5          83.0570    48.5170    47.1000 c6         1 D4E      -0.194400
     19 C18         83.6110    45.2620    45.0010 c6         1 D4E       0.085000
     20 N19         83.3300    45.0740    43.5500 n          1 D4E      -0.401800
     21 C31         83.1540    46.1860    42.6830 c          1 D4E       0.553000
     22 O32         82.9160    46.0240    41.4920 o          1 D4E      -0.565000
     23 C8          83.2430    47.6330    43.2800 c6         1 D4E       0.028700
     24 C46         84.0400    50.0360    42.7660 c3         1 D4E      -0.087100
     25 C11         86.6290    48.7580    41.4680 c3         1 D4E      -0.087100
     26 C20         83.2720    43.6820    43.0220 c3         1 D4E       0.148000
     27 C51         81.8900    43.0580    43.3210 c3         1 D4E      -0.109100
     28 C21         84.4870    42.8320    43.4660 ca         1 D4E      -0.085300
     29 C30         84.3360    41.8280    44.4550 ca         1 D4E      -0.102000
     30 C29         85.4310    41.0730    44.8960 ca         1 D4E      -0.116000
     31 C28         86.7050    41.3070    44.3680 ca         1 D4E      -0.089000
     32 C27         86.8900    42.3000    43.3920 ca         1 D4E      -0.041000
     33 C22         85.7890    43.0670    42.9300 ca         1 D4E      -0.020000
     34 C26         88.1840    42.5250    42.8840 ca         1 D4E      -0.101000
     35 C25         88.4020    43.5130    41.9130 ca         1 D4E      -0.103000
     36 C24         87.3240    44.2770    41.4440 ca         1 D4E      -0.105000
     37 C23         86.0300    44.0550    41.9430 ca         1 D4E      -0.100000
     38 H1          85.7630    47.0040    42.3560 hc         1 D4E       0.047700
     39 H2          86.0930    48.2920    43.5070 hc         1 D4E       0.047700
     40 H3          82.8230    46.4050    47.5170 h1         1 D4E       0.059700
     41 H4          83.9190    47.2330    48.6230 h1         1 D4E       0.059700
     42 H5          83.9050    48.4330    41.3780 hc         1 D4E       0.069700
     43 H6          90.3540    46.2640    49.1990 hc         1 D4E       0.078700
     44 H7          89.6330    46.3340    50.8020 hc         1 D4E       0.078700
     45 H8          87.5430    45.2340    49.9140 hc         1 D4E       0.066200
     46 H9          88.2690    45.1560    48.3090 hc         1 D4E       0.066200
     47 H10         88.3940    47.6650    48.2380 h1         1 D4E       0.058200
     48 H11         87.6770    47.7400    49.8610 h1         1 D4E       0.058200
     49 H12         85.5820    47.3170    48.9500 hn         1 D4E       0.315500
     50 H13         85.2470    46.5740    44.6670 h2         1 D4E       0.118700
     51 H14         83.8720    49.2450    47.2060 hc         1 D4E       0.082700
     52 H15         82.2060    48.8710    47.6950 hc         1 D4E       0.082700
     53 H16         82.6610    45.2350    45.5520 h1         1 D4E       0.058200
     54 H17         84.2390    44.4490    45.3870 h1         1 D4E       0.058200
     55 H18         82.2280    48.0150    43.0990 h1         1 D4E       0.108700
     56 H19         82.9810    50.3220    42.7330 hc         1 D4E       0.039033
     57 H20         84.4230    50.2590    43.7690 hc         1 D4E       0.039033
     58 H21         84.5720    50.6690    42.0460 hc         1 D4E       0.039033
     59 H22         87.6330    48.3230    41.5260 hc         1 D4E       0.032033
     60 H23         86.2500    48.6070    40.4500 hc         1 D4E       0.032033
     61 H24         86.7200    49.8350    41.6520 hc         1 D4E       0.032033
     62 H25         83.3230    43.7130    41.9260 h1         1 D4E       0.096700
     63 H26         81.1010    43.6420    42.8320 hc         1 D4E       0.044367
     64 H27         81.8360    42.0320    42.9370 hc         1 D4E       0.044367
     65 H28         81.6790    43.0470    44.3960 hc         1 D4E       0.044367
     66 H29         83.3700    41.6240    44.9070 ha         1 D4E       0.111000
     67 H30         85.2920    40.3080    45.6570 ha         1 D4E       0.114000
     68 H31         87.5490    40.7190    44.7220 ha         1 D4E       0.115000
     69 H32         89.0240    41.9350    43.2430 ha         1 D4E       0.113000
     70 H33         89.4030    43.6850    41.5240 ha         1 D4E       0.115000
     71 H34         87.4900    45.0420    40.6890 ha         1 D4E       0.116000
     72 H35         85.2290    44.6650    41.5440 ha         1 D4E       0.129000
     73 O33         81.7460    49.1310    45.2000 o          1 D4E      -0.551000
@<TRIPOS>BOND
     1     1     5 1   
     2     1    25 1   
     3     1    38 1   
     4     1    39 1   
     5     2     6 1   
     6     2     7 2   
     7     2    15 1   
     8     3     6 1   
     9     3    18 1   
    10     3    40 1   
    11     3    41 1   
    12     4    17 1   
    13     4    18 1   
    14     4    73 2   
    15     5    23 1   
    16     5    24 1   
    17     5    42 1   
    18     6    16 1   
    19     8     9 1   
    20     9    10 1   
    21     9    11 1   
    22     9    12 1   
    23    12    13 1   
    24    12    43 1   
    25    12    44 1   
    26    13    14 1   
    27    13    45 1   
    28    13    46 1   
    29    14    15 1   
    30    14    47 1   
    31    14    48 1   
    32    15    49 1   
    33    16    17 1   
    34    16    19 1   
    35    16    50 1   
    36    17    23 1   
    37    18    51 1   
    38    18    52 1   
    39    19    20 1   
    40    19    53 1   
    41    19    54 1   
    42    20    21 1   
    43    20    26 1   
    44    21    22 2   
    45    21    23 1   
    46    23    55 1   
    47    24    56 1   
    48    24    57 1   
    49    24    58 1   
    50    25    59 1   
    51    25    60 1   
    52    25    61 1   
    53    26    27 1   
    54    26    28 1   
    55    26    62 1   
    56    27    63 1   
    57    27    64 1   
    58    27    65 1   
    59    28    29 ar  
    60    28    33 ar  
    61    29    30 ar  
    62    29    66 1   
    63    30    31 ar  
    64    30    67 1   
    65    31    32 ar  
    66    31    68 1   
    67    32    33 ar  
    68    32    34 ar  
    69    33    37 ar  
    70    34    35 ar  
    71    34    69 1   
    72    35    36 ar  
    73    35    70 1   
    74    36    37 ar  
    75    36    71 1   
    76    37    72 1   
@<TRIPOS>SUBSTRUCTURE
     1 D4E         1 TEMP              0 ****  ****    0 ROOT
