@<TRIPOS>MOLECULE
D4E
   73    76     1     0     0
SMALL
bcc


@<TRIPOS>ATOM
      1 C10         86.0570    47.7260    42.7360 c3         1 D4E      -0.083400
      2 C2          86.0310    46.7780    47.1760 c          1 D4E       0.782100
      3 C4          83.5880    46.4860    47.5460 c6         1 D4E       0.081000
      4 C6          82.9130    48.1600    45.7900 c          1 D4E       0.713500
      5 C9          84.6980    48.4300    42.8290 c3         1 D4E      -0.054700
      6 N3          84.7950    46.2830    46.7590 n          1 D4E      -0.463800
      7 O1          86.9330    47.0100    46.3830 o          1 D4E      -0.616100
      8 F42         90.1890    45.2500    51.4780 f          1 D4E      -0.238300
      9 C38         90.6570    46.1670    50.6170 c3         1 D4E       0.665900
     10 F40         91.2020    45.4890    49.5940 f          1 D4E      -0.238300
     11 F41         91.6680    46.7950    51.2400 f          1 D4E      -0.238300
     12 C37         89.5950    47.1280    50.1640 c3         1 D4E      -0.150400
     13 C36         88.4090    46.4590    49.4760 c3         1 D4E      -0.102400
     14 C35         87.3820    47.5150    49.0830 c3         1 D4E       0.114000
     15 N34         86.1760    46.9720    48.5040 ns         1 D4E      -0.582900
     16 C17         84.5370    46.3110    45.3490 c6         1 D4E       0.251100
     17 N7          83.7190    47.4560    44.9520 n          1 D4E      -0.494800
     18 C5          83.0420    47.8710    47.2680 c6         1 D4E      -0.194400
     19 C18         83.8630    45.0380    44.8670 c6         1 D4E       0.085000
     20 N19         83.5210    45.1250    43.4570 n          1 D4E      -0.468800
     21 C31         83.3510    46.2890    42.7940 c          1 D4E       0.695500
     22 O32         83.0150    46.3340    41.6180 o          1 D4E      -0.640500
     23 C8          83.5790    47.6110    43.5170 c6         1 D4E       0.028700
     24 C46         84.8280    49.8040    43.4770 c3         1 D4E      -0.087100
     25 C11         86.9680    48.3340    41.6760 c3         1 D4E      -0.087100
     26 C20         83.0870    43.8790    42.8040 c3         1 D4E       0.148000
     27 C51         81.6500    43.5550    43.1940 c3         1 D4E      -0.109100
     28 C21         84.0820    42.7650    43.0580 ca         1 D4E      -0.085300
     29 C30         83.7670    41.7010    43.8620 ca         1 D4E      -0.120000
     30 C29         84.6880    40.6660    44.1230 ca         1 D4E      -0.134000
     31 C28         85.9370    40.7080    43.5770 ca         1 D4E      -0.107000
     32 C27         86.3110    41.7820    42.7350 ca         1 D4E      -0.041000
     33 C22         85.3790    42.8190    42.4590 ca         1 D4E      -0.020000
     34 C26         87.6010    41.8280    42.1580 ca         1 D4E      -0.119000
     35 C25         87.9650    42.8550    41.3320 ca         1 D4E      -0.121000
     36 C24         87.0410    43.8770    41.0410 ca         1 D4E      -0.123000
     37 C23         85.7850    43.8600    41.5860 ca         1 D4E      -0.118000
     38 H1          85.9260    46.6660    42.5000 hc         1 D4E       0.047700
     39 H2          86.5640    47.7620    43.7050 hc         1 D4E       0.047700
     40 H3          82.8570    45.7240    47.2720 h1         1 D4E       0.059700
     41 H4          83.7550    46.3320    48.6080 h1         1 D4E       0.059700
     42 H5          84.3370    48.5760    41.8070 hc         1 D4E       0.069700
     43 H6          90.0620    47.8520    49.4910 hc         1 D4E       0.078700
     44 H7          89.2530    47.6860    51.0400 hc         1 D4E       0.078700
     45 H8          87.9400    45.7350    50.1460 hc         1 D4E       0.066200
     46 H9          88.7330    45.9180    48.5850 hc         1 D4E       0.066200
     47 H10         87.8230    48.2270    48.3860 h1         1 D4E       0.058200
     48 H11         87.0870    48.0830    49.9680 h1         1 D4E       0.058200
     49 H12         85.4930    46.6240    49.1540 hn         1 D4E       0.315500
     50 H13         85.4940    46.3920    44.8410 h2         1 D4E       0.118700
     51 H14         83.7010    48.6290    47.7030 hc         1 D4E       0.082700
     52 H15         82.0610    48.0090    47.7230 hc         1 D4E       0.082700
     53 H16         82.9680    44.8040    45.4500 h1         1 D4E       0.058200
     54 H17         84.5690    44.2190    45.0110 h1         1 D4E       0.058200
     55 H18         82.6550    48.1690    43.3560 h1         1 D4E       0.108700
     56 H19         83.8740    50.3320    43.4990 hc         1 D4E       0.039033
     57 H20         85.1930    49.7240    44.5030 hc         1 D4E       0.039033
     58 H21         85.5330    50.4270    42.9280 hc         1 D4E       0.039033
     59 H22         87.9170    47.7980    41.6290 hc         1 D4E       0.032033
     60 H23         86.5080    48.2810    40.6870 hc         1 D4E       0.032033
     61 H24         87.1950    49.3800    41.8800 hc         1 D4E       0.032033
     62 H25         83.0840    44.0810    41.7330 h1         1 D4E       0.096700
     63 H26         80.9980    44.3720    42.8870 hc         1 D4E       0.044367
     64 H27         81.3090    42.6520    42.6890 hc         1 D4E       0.044367
     65 H28         81.5210    43.4110    44.2670 hc         1 D4E       0.044367
     66 H29         82.7910    41.6410    44.3240 ha         1 D4E       0.129000
     67 H30         84.3960    39.8450    44.7650 ha         1 D4E       0.132000
     68 H31         86.6560    39.9230    43.7760 ha         1 D4E       0.133000
     69 H32         88.2980    41.0280    42.3800 ha         1 D4E       0.131000
     70 H33         88.9550    42.8810    40.8950 ha         1 D4E       0.133000
     71 H34         87.3240    44.6820    40.3740 ha         1 D4E       0.134000
     72 H35         85.0980    44.6500    41.3190 ha         1 D4E       0.147000
     73 O33         82.1360    49.0120    45.3900 o          1 D4E      -0.626500
@<TRIPOS>BOND
     1     1     5 1   
     2     1    25 1   
     3     1    38 1   
     4     1    39 1   
     5     2     6 1   
     6     2     7 2   
     7     2    15 1   
     8     3     6 1   
     9     3    18 1   
    10     3    40 1   
    11     3    41 1   
    12     4    17 1   
    13     4    18 1   
    14     4    73 2   
    15     5    23 1   
    16     5    24 1   
    17     5    42 1   
    18     6    16 1   
    19     8     9 1   
    20     9    10 1   
    21     9    11 1   
    22     9    12 1   
    23    12    13 1   
    24    12    43 1   
    25    12    44 1   
    26    13    14 1   
    27    13    45 1   
    28    13    46 1   
    29    14    15 1   
    30    14    47 1   
    31    14    48 1   
    32    15    49 1   
    33    16    17 1   
    34    16    19 1   
    35    16    50 1   
    36    17    23 1   
    37    18    51 1   
    38    18    52 1   
    39    19    20 1   
    40    19    53 1   
    41    19    54 1   
    42    20    21 1   
    43    20    26 1   
    44    21    22 2   
    45    21    23 1   
    46    23    55 1   
    47    24    56 1   
    48    24    57 1   
    49    24    58 1   
    50    25    59 1   
    51    25    60 1   
    52    25    61 1   
    53    26    27 1   
    54    26    28 1   
    55    26    62 1   
    56    27    63 1   
    57    27    64 1   
    58    27    65 1   
    59    28    29 ar  
    60    28    33 ar  
    61    29    30 ar  
    62    29    66 1   
    63    30    31 ar  
    64    30    67 1   
    65    31    32 ar  
    66    31    68 1   
    67    32    33 ar  
    68    32    34 ar  
    69    33    37 ar  
    70    34    35 ar  
    71    34    69 1   
    72    35    36 ar  
    73    35    70 1   
    74    36    37 ar  
    75    36    71 1   
    76    37    72 1   
@<TRIPOS>SUBSTRUCTURE
     1 D4E         1 TEMP              0 ****  ****    0 ROOT
