@<TRIPOS>MOLECULE
D4G
   22    23     1     0     0
SMALL
No Charge or Current Charge


@<TRIPOS>ATOM
      1 C3          -3.3170    -0.4560     0.8240 ca         1 D4G      -0.153000
      2 C2          -4.3610     0.3980     0.4290 ca         1 D4G       0.346650
      3 N_1         -4.1840     1.4300    -0.4300 nb         1 D4G      -0.658500
      4 C1          -2.9380     1.6340    -0.9180 ca         1 D4G       0.346650
      5 C5          -1.8380     0.8270    -0.5750 ca         1 D4G      -0.153000
      6 C4          -2.0250    -0.2490     0.3140 ca         1 D4G      -0.083500
      7 S_1         -0.6790    -1.3240     0.8110 ss         1 D4G       0.033000
      8 S_2          0.7070    -1.3190    -0.7640 ss         1 D4G       0.033000
      9 C6           2.0400    -0.2260    -0.2710 ca         1 D4G      -0.083500
     10 C7           1.8400     0.8520     0.6120 ca         1 D4G      -0.153000
     11 C8           2.9300     1.6730     0.9520 ca         1 D4G       0.346650
     12 N_2          4.1790     1.4820     0.4660 nb         1 D4G      -0.658500
     13 C9           4.3690     0.4470    -0.3880 ca         1 D4G       0.346650
     14 C10          3.3350    -0.4210    -0.7790 ca         1 D4G      -0.153000
     15 H3          -3.5190    -1.2680     1.5170 ha         1 D4G       0.137000
     16 H2          -5.3710     0.2530     0.8110 h4         1 D4G       0.023100
     17 H1          -2.8160     2.4710    -1.6040 h4         1 D4G       0.023100
     18 H5          -0.8640     1.0520    -0.9990 ha         1 D4G       0.137000
     19 H7           0.8630     1.0670     1.0340 ha         1 D4G       0.137000
     20 H8           2.7990     2.5130     1.6340 h4         1 D4G       0.023100
     21 H9           5.3810     0.3120    -0.7690 h4         1 D4G       0.023100
     22 H10          3.5470    -1.2340    -1.4680 ha         1 D4G       0.137000
@<TRIPOS>BOND
     1     1     2 ar  
     2     1     6 ar  
     3     1    15 1   
     4     2     3 ar  
     5     2    16 1   
     6     3     4 ar  
     7     4     5 ar  
     8     4    17 1   
     9     5     6 ar  
    10     5    18 1   
    11     6     7 1   
    12     7     8 1   
    13     8     9 1   
    14     9    10 ar  
    15     9    14 ar  
    16    10    11 ar  
    17    10    19 1   
    18    11    12 ar  
    19    11    20 1   
    20    12    13 ar  
    21    13    14 ar  
    22    13    21 1   
    23    14    22 1   
@<TRIPOS>SUBSTRUCTURE
     1 D4G         1 TEMP              0 ****  ****    0 ROOT
