@<TRIPOS>MOLECULE
D4G
   22    23     1     0     0
SMALL
bcc


@<TRIPOS>ATOM
      1 C3          -3.0510    -0.2370     0.9000 ca         1 D4G      -0.236300
      2 C2          -3.9580     0.7430     0.5300 ca         1 D4G       0.411950
      3 N_1         -3.7630     1.5890    -0.4740 nb         1 D4G      -0.658500
      4 C1          -2.6290     1.4760    -1.1530 ca         1 D4G       0.411950
      5 C5          -1.6470     0.5360    -0.8730 ca         1 D4G      -0.236300
      6 C4          -1.8670    -0.3410     0.1770 ca         1 D4G       0.043400
      7 S_1         -0.7330    -1.5930     0.7110 ss         1 D4G      -0.093900
      8 S_2          0.7640    -1.5840    -0.6710 ss         1 D4G      -0.093900
      9 C6           1.8830    -0.3190    -0.1380 ca         1 D4G       0.043400
     10 C7           1.6510     0.5570     0.9100 ca         1 D4G      -0.236300
     11 C8           2.6220     1.5080     1.1900 ca         1 D4G       0.411950
     12 N_2          3.7570     1.6320     0.5150 nb         1 D4G      -0.658500
     13 C9           3.9630     0.7850    -0.4870 ca         1 D4G       0.411950
     14 C10          3.0680    -0.2040    -0.8580 ca         1 D4G      -0.236300
     15 H3          -3.2750    -0.8950     1.7300 ha         1 D4G       0.155000
     16 H2          -4.8880     0.8410     1.0780 h4         1 D4G       0.023100
     17 H1          -2.4800     2.1710    -1.9710 h4         1 D4G       0.023100
     18 H5          -0.7490     0.5000    -1.4740 ha         1 D4G       0.155000
     19 H7           0.7510     0.5140     1.5080 ha         1 D4G       0.155000
     20 H8           2.4630     2.2040     2.0060 h4         1 D4G       0.023100
     21 H9           4.8940     0.8920    -1.0320 h4         1 D4G       0.023100
     22 H10          3.3010    -0.8620    -1.6850 ha         1 D4G       0.155000
@<TRIPOS>BOND
     1     1     2 ar  
     2     1     6 ar  
     3     1    15 1   
     4     2     3 ar  
     5     2    16 1   
     6     3     4 ar  
     7     4     5 ar  
     8     4    17 1   
     9     5     6 ar  
    10     5    18 1   
    11     6     7 1   
    12     7     8 1   
    13     8     9 1   
    14     9    10 ar  
    15     9    14 ar  
    16    10    11 ar  
    17    10    19 1   
    18    11    12 ar  
    19    11    20 1   
    20    12    13 ar  
    21    13    14 ar  
    22    13    21 1   
    23    14    22 1   
@<TRIPOS>SUBSTRUCTURE
     1 D4G         1 TEMP              0 ****  ****    0 ROOT
