@<TRIPOS>MOLECULE
D4H
   40    42     1     0     0
SMALL
No Charge or Current Charge


@<TRIPOS>ATOM
      1 C14         -1.0940    -3.9780     0.4410 c5         1 D4H       0.133800
      2 C10         -2.3390     2.6870    -1.3570 ca         1 D4H      -0.109000
      3 C11         -1.5420     1.5350    -1.4740 ca         1 D4H      -0.104500
      4 C12         -0.9190    -1.6630     0.1890 c5         1 D4H       0.154500
      5 C02          3.3920     0.8510    -0.4110 ca         1 D4H      -0.075300
      6 C03          2.0870     0.5290    -0.8300 ca         1 D4H      -0.106000
      7 C04          1.1770    -0.0970     0.0470 ca         1 D4H      -0.055300
      8 C05         -0.2430    -0.4100    -0.4520 c3         1 D4H       0.034900
      9 C06         -1.1100     0.8450    -0.3220 ca         1 D4H      -0.069300
     10 C07         -1.4860     1.3300     0.9490 ca         1 D4H      -0.104500
     11 C08         -2.2830     2.4820     1.0650 ca         1 D4H      -0.109000
     12 C09         -2.7110     3.1600    -0.0880 ca         1 D4H      -0.110000
     13 C15         -2.5310    -3.4400     0.1730 c5         1 D4H      -0.113400
     14 C16         -2.2880    -2.0310    -0.4330 c5         1 D4H      -0.111400
     15 C17          1.5910    -0.3850     1.3670 ca         1 D4H      -0.093000
     16 C18          2.8920    -0.0620     1.7900 ca         1 D4H      -0.107000
     17 C19          3.7910     0.5530     0.9040 ca         1 D4H      -0.109000
     18 N13         -0.1760    -2.9200    -0.0430 n7         1 D4H      -0.819400
     19 H1          -0.9490    -4.1430     1.5190 h1         1 D4H       0.052700
     20 H2          -0.9060    -4.9350    -0.0670 h1         1 D4H       0.052700
     21 H4          -1.2610     1.1810    -2.4630 ha         1 D4H       0.110500
     22 H5          -1.0420    -1.4840     1.2670 h1         1 D4H       0.067700
     23 H6           4.2440     2.6180    -1.3360 hc         1 D4H       0.040367
     24 H7           5.4000     1.2910    -1.1250 hc         1 D4H       0.040367
     25 H8           4.1840     1.2060    -2.4050 hc         1 D4H       0.040367
     26 H9           1.7760     0.7700    -1.8440 ha         1 D4H       0.103000
     27 H10         -0.1520    -0.6390    -1.5210 hc         1 D4H       0.050700
     28 H11         -1.1570     0.8180     1.8500 ha         1 D4H       0.110500
     29 H12         -2.5680     2.8490     2.0490 ha         1 D4H       0.111500
     30 H13         -3.3280     4.0520     0.0020 ha         1 D4H       0.112000
     31 H14         -3.0950    -4.0860    -0.5100 hc         1 D4H       0.045700
     32 H15         -3.1020    -3.3810     1.1070 hc         1 D4H       0.045700
     33 H16         -3.0770    -1.3190    -0.1660 hc         1 D4H       0.050200
     34 H17         -2.2380    -2.0690    -1.5280 hc         1 D4H       0.050200
     35 H18          0.9140    -0.8540     2.0740 ha         1 D4H       0.110000
     36 H19          3.2030    -0.2880     2.8070 ha         1 D4H       0.110000
     37 H20          4.7950     0.8010     1.2410 ha         1 D4H       0.109000
     38 H21         -0.0640    -3.0300    -1.0570 hn         1 D4H       0.397000
     39 H3          -2.6690     3.2120    -2.2510 ha         1 D4H       0.111500
     40 C01          4.3580     1.5280    -1.3720 c3         1 D4H      -0.044800
@<TRIPOS>BOND
     1     1    13 1   
     2     1    18 1   
     3     1    19 1   
     4     1    20 1   
     5     2     3 ar  
     6     2    12 ar  
     7     2    39 1   
     8     3     9 ar  
     9     3    21 1   
    10     4     8 1   
    11     4    14 1   
    12     4    18 1   
    13     4    22 1   
    14     5     6 ar  
    15     5    17 ar  
    16     5    40 1   
    17     6     7 ar  
    18     6    26 1   
    19     7     8 1   
    20     7    15 ar  
    21     8     9 1   
    22     8    27 1   
    23     9    10 ar  
    24    10    11 ar  
    25    10    28 1   
    26    11    12 ar  
    27    11    29 1   
    28    12    30 1   
    29    13    14 1   
    30    13    31 1   
    31    13    32 1   
    32    14    33 1   
    33    14    34 1   
    34    15    16 ar  
    35    15    35 1   
    36    16    17 ar  
    37    16    36 1   
    38    17    37 1   
    39    18    38 1   
    40    23    40 1   
    41    24    40 1   
    42    25    40 1   
@<TRIPOS>SUBSTRUCTURE
     1 D4H         1 TEMP              0 ****  ****    0 ROOT
