@<TRIPOS>MOLECULE
D4H
   40    42     1     0     0
SMALL
abcg2


@<TRIPOS>ATOM
      1 C14         -0.7750    -3.8570     0.2140 c5         1 D4H       0.133800
      2 C10         -2.2760     2.9390    -1.0390 ca         1 D4H      -0.109000
      3 C11         -1.4600     1.8280    -1.2080 ca         1 D4H      -0.104500
      4 C12         -0.8500    -1.5550     0.2200 c5         1 D4H       0.154500
      5 C02          3.4090     0.4920    -0.5210 ca         1 D4H      -0.075300
      6 C03          2.0980     0.1760    -0.8810 ca         1 D4H      -0.106000
      7 C04          1.0790     0.0740     0.0570 ca         1 D4H      -0.055300
      8 C05         -0.3290    -0.2570    -0.3940 c3         1 D4H       0.034900
      9 C06         -1.2570     0.9190    -0.1720 ca         1 D4H      -0.069300
     10 C07         -1.8980     1.1510     1.0440 ca         1 D4H      -0.104500
     11 C08         -2.7150     2.2600     1.2180 ca         1 D4H      -0.109000
     12 C09         -2.9060     3.1600     0.1780 ca         1 D4H      -0.110000
     13 C15         -2.2390    -3.5080    -0.1440 c5         1 D4H      -0.113400
     14 C16         -2.2360    -1.9770    -0.2940 c5         1 D4H      -0.111400
     15 C17          1.3850     0.2980     1.3990 ca         1 D4H      -0.093000
     16 C18          2.6810     0.6090     1.7760 ca         1 D4H      -0.107000
     17 C19          3.6890     0.7070     0.8230 ca         1 D4H      -0.109000
     18 N13          0.0360    -2.6760    -0.0640 n7         1 D4H      -0.819400
     19 H1          -0.6990    -4.0930     1.2790 h1         1 D4H       0.052700
     20 H2          -0.3910    -4.7180    -0.3320 h1         1 D4H       0.052700
     21 H4          -0.9760     1.6630    -2.1640 ha         1 D4H       0.110500
     22 H5          -0.8970    -1.4520     1.3110 h1         1 D4H       0.067700
     23 H6           4.3380     1.4980    -2.1810 hc         1 D4H       0.040367
     24 H7           5.4700     0.6630    -1.1270 hc         1 D4H       0.040367
     25 H8           4.4610    -0.2510    -2.2470 hc         1 D4H       0.040367
     26 H9           1.8680     0.0010    -1.9280 ha         1 D4H       0.103000
     27 H10         -0.2880    -0.4220    -1.4780 hc         1 D4H       0.050700
     28 H11         -1.7740     0.4610     1.8690 ha         1 D4H       0.110500
     29 H12         -3.2070     2.4170     2.1700 ha         1 D4H       0.111500
     30 H13         -3.5450     4.0230     0.3140 ha         1 D4H       0.112000
     31 H14         -2.5470    -3.9940    -1.0710 hc         1 D4H       0.045700
     32 H15         -2.9250    -3.8420     0.6340 hc         1 D4H       0.045700
     33 H16         -3.0510    -1.4950     0.2460 hc         1 D4H       0.050200
     34 H17         -2.3380    -1.6900    -1.3450 hc         1 D4H       0.050200
     35 H18          0.6150     0.2330     2.1580 ha         1 D4H       0.110000
     36 H19          2.9110     0.7770     2.8210 ha         1 D4H       0.110000
     37 H20          4.6990     0.9510     1.1310 ha         1 D4H       0.109000
     38 H21          0.2590    -2.6640    -1.0540 hn         1 D4H       0.397000
     39 H3          -2.4220     3.6280    -1.8610 ha         1 D4H       0.111500
     40 C01          4.4770     0.6050    -1.5710 c3         1 D4H      -0.044800
@<TRIPOS>BOND
     1     1    13 1   
     2     1    18 1   
     3     1    19 1   
     4     1    20 1   
     5     2     3 ar  
     6     2    12 ar  
     7     2    39 1   
     8     3     9 ar  
     9     3    21 1   
    10     4     8 1   
    11     4    14 1   
    12     4    18 1   
    13     4    22 1   
    14     5     6 ar  
    15     5    17 ar  
    16     5    40 1   
    17     6     7 ar  
    18     6    26 1   
    19     7     8 1   
    20     7    15 ar  
    21     8     9 1   
    22     8    27 1   
    23     9    10 ar  
    24    10    11 ar  
    25    10    28 1   
    26    11    12 ar  
    27    11    29 1   
    28    12    30 1   
    29    13    14 1   
    30    13    31 1   
    31    13    32 1   
    32    14    33 1   
    33    14    34 1   
    34    15    16 ar  
    35    15    35 1   
    36    16    17 ar  
    37    16    36 1   
    38    17    37 1   
    39    18    38 1   
    40    23    40 1   
    41    24    40 1   
    42    25    40 1   
@<TRIPOS>SUBSTRUCTURE
     1 D4H         1 TEMP              0 ****  ****    0 ROOT
