@<TRIPOS>MOLECULE
D4I
   99   103     1     0     0
SMALL
abcg2


@<TRIPOS>ATOM
      1 C4         -10.1550   -13.5330    15.0270 c6         1 D4I       0.153300
      2 C5          -9.0370   -13.5190    13.9880 c6         1 D4I       0.086300
      3 C6          -8.8500   -12.0870    13.5250 c6         1 D4I       0.179600
      4 C8          -8.2230   -14.7180    19.5750 c3         1 D4I      -0.176100
      5 N2          -8.5960   -14.9480    17.2060 ns         1 D4I      -0.469900
      6 C3         -10.3910   -14.9560    15.4940 c6         1 D4I       0.167300
      7 CBT          0.5480   -17.3670    10.3300 c3         1 D4I      -0.181100
      8 CBS          0.2030   -17.5930    11.7810 c          1 D4I       0.614100
      9 OBU          0.2380   -16.6920    12.6090 o          1 D4I      -0.661100
     10 NBR         -0.1780   -18.8510    12.0770 ns         1 D4I      -0.464900
     11 CBL         -0.5990   -19.2690    13.3870 c6         1 D4I       0.021700
     12 CBK          0.2820   -20.4220    13.9070 c6         1 D4I       0.388300
     13 OBV          1.6350   -20.1750    13.7770 os         1 D4I      -0.442000
     14 CCB          2.1520   -19.2440    14.7020 c3         1 D4I       0.152900
     15 OBJ          0.0650   -21.5830    13.1570 os         1 D4I      -0.442000
     16 CBI         -1.2660   -22.0240    13.2840 c6         1 D4I       0.080300
     17 CBP         -1.4710   -23.3380    12.5540 c6         1 D4I       0.184600
     18 OBQ         -2.8290   -23.6980    12.6640 os         1 D4I      -0.467000
     19 CBW         -3.7340   -22.7400    12.1670 c6         1 D4I       0.225000
     20 CBY         -5.1250   -23.2170    12.5460 c3         1 D4I      -0.057100
     21 CBX         -3.6590   -22.6000    10.6050 c          1 D4I       0.692000
     22 OCA         -3.9990   -21.4990    10.1400 o          1 D4I      -0.700000
     23 OBZ         -3.3450   -23.6310     9.9860 o          1 D4I      -0.700000
     24 OBO         -3.5420   -21.5060    12.8250 os         1 D4I      -0.436000
     25 CBN         -2.2370   -21.0110    12.6880 c6         1 D4I       0.149300
     26 CBM         -2.0800   -19.6940    13.4180 c6         1 D4I       0.170300
     27 OBD         -2.8910   -18.7140    12.8050 os         1 D4I      -0.383000
     28 CAW         -3.5270   -17.8360    13.6540 c6         1 D4I       0.389300
     29 CAX         -4.0720   -16.6700    12.8250 c6         1 D4I       0.082700
     30 CAY         -4.9590   -15.7720    13.6930 c6         1 D4I       0.141300
     31 OBA         -5.5200   -14.8060    12.8460 oh         1 D4I      -0.712000
     32 NBE         -3.0050   -15.9150    12.2270 ns         1 D4I      -0.486900
     33 CBF         -2.9630   -15.5710    10.9230 c          1 D4I       0.612100
     34 OBH         -3.7690   -15.9730    10.0970 o          1 D4I      -0.588100
     35 CBG         -1.8590   -14.6100    10.5550 c3         1 D4I      -0.184100
     36 OAV         -4.5820   -18.5250    14.2730 os         1 D4I      -0.451000
     37 CAU         -5.3170   -17.7390    15.1870 c6         1 D4I       0.184300
     38 CBB         -6.2690   -18.6350    15.9510 c3         1 D4I       0.172600
     39 OBC         -7.2610   -19.1250    15.0820 oh         1 D4I      -0.703000
     40 CAZ         -6.0090   -16.6280    14.3980 c6         1 D4I       0.108300
     41 O1          -6.7770   -15.8610    15.3070 os         1 D4I      -0.452000
     42 C1          -7.9950   -15.3950    14.8740 c6         1 D4I       0.385300
     43 O5          -7.8410   -14.0300    14.5310 os         1 D4I      -0.492000
     44 O6         -10.0890   -11.6080    13.0550 os         1 D4I      -0.463000
     45 CAO        -11.1350   -11.6670    13.9950 c6         1 D4I       0.229000
     46 CAQ        -12.4040   -11.2860    13.2550 c3         1 D4I      -0.057100
     47 CAP        -10.9300   -10.6670    15.1870 c          1 D4I       0.693000
     48 OAS        -10.2710    -9.6450    14.9330 o          1 D4I      -0.705500
     49 OAR        -11.5160   -10.9580    16.2440 o          1 D4I      -0.705500
     50 O4         -11.3120   -12.9950    14.4400 os         1 D4I      -0.450000
     51 O3         -11.3600   -14.9620    16.5030 oh         1 D4I      -0.674000
     52 C2          -9.0440   -15.5430    15.9750 c6         1 D4I       0.042700
     53 O7          -9.1190   -16.6860    18.5560 o          1 D4I      -0.647100
     54 H1          -9.8430   -12.9240    15.8900 h1         1 D4I       0.080700
     55 H2          -9.3500   -14.1300    13.1270 h1         1 D4I       0.047700
     56 H3          -8.1440   -12.0300    12.6940 h1         1 D4I       0.055700
     57 H4          -8.4580   -11.4750    14.3470 h1         1 D4I       0.055700
     58 H5          -7.5300   -15.2970    20.1850 hc         1 D4I       0.054700
     59 H6          -7.7370   -13.7890    19.2840 hc         1 D4I       0.054700
     60 H7          -9.0800   -14.4720    20.2030 hc         1 D4I       0.054700
     61 H8          -8.2200   -14.0130    17.1760 hn         1 D4I       0.333500
     62 H9         -10.7140   -15.5530    14.6270 h1         1 D4I       0.033700
     63 H10          1.2360   -16.5310    10.2340 hc         1 D4I       0.059700
     64 H11          0.9870   -18.2470     9.8610 hc         1 D4I       0.059700
     65 H12         -0.3600   -17.1190     9.7780 hc         1 D4I       0.059700
     66 H13         -0.1310   -19.5400    11.3430 hn         1 D4I       0.337500
     67 H16          3.2350   -19.2490    14.5920 h1         1 D4I       0.030700
     68 H17          1.7940   -18.2270    14.5200 h1         1 D4I       0.030700
     69 H18          1.9060   -19.5170    15.7330 h1         1 D4I       0.030700
     70 H19         -1.5160   -22.1690    14.3470 h1         1 D4I       0.038700
     71 H20         -0.8860   -24.1400    13.0080 h1         1 D4I       0.052200
     72 H21         -1.1530   -23.2380    11.5080 h1         1 D4I       0.052200
     73 H22         -5.2200   -23.3220    13.6280 hc         1 D4I       0.037033
     74 H23         -5.8750   -22.5060    12.2010 hc         1 D4I       0.037033
     75 H24         -5.3350   -24.1810    12.0850 hc         1 D4I       0.037033
     76 H26         -1.9890   -20.8660    11.6260 h1         1 D4I       0.085700
     77 H27         -2.3680   -19.8430    14.4660 h1         1 D4I       0.051700
     78 H28         -2.8400   -17.4480    14.4300 h2         1 D4I       0.000700
     79 H29         -4.6820   -17.0880    12.0200 h1         1 D4I       0.133700
     80 H30         -4.3280   -15.3050    14.4670 h1         1 D4I       0.023700
     81 H31         -6.0440   -14.1900    13.3730 ho         1 D4I       0.529000
     82 H32         -2.3000   -15.5370    12.8410 hn         1 D4I       0.309500
     83 H33         -1.4810   -14.8400     9.5610 hc         1 D4I       0.054033
     84 H34         -2.2690   -13.5990    10.5250 hc         1 D4I       0.054033
     85 H35         -1.0290   -14.6150    11.2580 hc         1 D4I       0.054033
     86 H36         -4.6410   -17.2850    15.9290 h1         1 D4I       0.032700
     87 H37         -5.6810   -19.4450    16.4030 h1         1 D4I       0.031700
     88 H38         -6.6940   -18.0540    16.7760 h1         1 D4I       0.031700
     89 H39         -7.9040   -19.6130    15.6040 ho         1 D4I       0.499000
     90 H40         -6.6600   -17.0810    13.6400 h1         1 D4I       0.091700
     91 H41         -8.3460   -15.9520    13.9890 h2         1 D4I       0.046700
     92 H42        -13.2610   -11.3280    13.9260 hc         1 D4I       0.035033
     93 H43        -12.3280   -10.2690    12.8700 hc         1 D4I       0.035033
     94 H44        -12.5850   -11.9610    12.4170 hc         1 D4I       0.035033
     95 H46        -11.5750   -15.8750    16.7190 ho         1 D4I       0.491000
     96 H47         -9.1780   -16.6130    16.1510 h1         1 D4I       0.079700
     97 C7          -8.6880   -15.5520    18.4070 c          1 D4I       0.613100
     98 H14         -0.4830   -18.4140    14.0560 h1         1 D4I       0.072700
     99 H15          0.0150   -20.6010    14.9670 h2         1 D4I       0.015700
@<TRIPOS>BOND
     1     1     2 1   
     2     1     6 1   
     3     1    50 1   
     4     1    54 1   
     5     2     3 1   
     6     2    43 1   
     7     2    55 1   
     8     3    44 1   
     9     3    56 1   
    10     3    57 1   
    11     4    58 1   
    12     4    59 1   
    13     4    60 1   
    14     4    97 1   
    15     5    52 1   
    16     5    61 1   
    17     5    97 1   
    18     6    51 1   
    19     6    52 1   
    20     6    62 1   
    21     7     8 1   
    22     7    63 1   
    23     7    64 1   
    24     7    65 1   
    25     8     9 2   
    26     8    10 1   
    27    10    11 1   
    28    10    66 1   
    29    11    12 1   
    30    11    26 1   
    31    11    98 1   
    32    12    13 1   
    33    12    15 1   
    34    12    99 1   
    35    13    14 1   
    36    14    67 1   
    37    14    68 1   
    38    14    69 1   
    39    15    16 1   
    40    16    17 1   
    41    16    25 1   
    42    16    70 1   
    43    17    18 1   
    44    17    71 1   
    45    17    72 1   
    46    18    19 1   
    47    19    20 1   
    48    19    21 1   
    49    19    24 1   
    50    20    73 1   
    51    20    74 1   
    52    20    75 1   
    53    21    22 1   
    54    21    23 1   
    55    24    25 1   
    56    25    26 1   
    57    25    76 1   
    58    26    27 1   
    59    26    77 1   
    60    27    28 1   
    61    28    29 1   
    62    28    36 1   
    63    28    78 1   
    64    29    30 1   
    65    29    32 1   
    66    29    79 1   
    67    30    31 1   
    68    30    40 1   
    69    30    80 1   
    70    31    81 1   
    71    32    33 1   
    72    32    82 1   
    73    33    34 2   
    74    33    35 1   
    75    35    83 1   
    76    35    84 1   
    77    35    85 1   
    78    36    37 1   
    79    37    38 1   
    80    37    40 1   
    81    37    86 1   
    82    38    39 1   
    83    38    87 1   
    84    38    88 1   
    85    39    89 1   
    86    40    41 1   
    87    40    90 1   
    88    41    42 1   
    89    42    43 1   
    90    42    52 1   
    91    42    91 1   
    92    44    45 1   
    93    45    46 1   
    94    45    47 1   
    95    45    50 1   
    96    46    92 1   
    97    46    93 1   
    98    46    94 1   
    99    47    48 1   
   100    47    49 1   
   101    51    95 1   
   102    52    96 1   
   103    53    97 2   
@<TRIPOS>SUBSTRUCTURE
     1 D4I         1 TEMP              0 ****  ****    0 ROOT
