@<TRIPOS>MOLECULE
D4I
   99   103     1     0     0
SMALL
No Charge or Current Charge


@<TRIPOS>ATOM
      1 C4         -10.0790   -13.3030    15.2790 c6         1 D4I       0.153300
      2 C5          -9.2630   -13.7620    14.0450 c6         1 D4I       0.086300
      3 C6          -9.0110   -12.5270    13.1510 c6         1 D4I       0.179600
      4 C8          -7.2450   -13.2960    19.4380 c3         1 D4I      -0.176100
      5 N2          -8.1450   -14.3760    17.4360 ns         1 D4I      -0.469900
      6 C3         -10.3570   -14.5450    16.1840 c6         1 D4I       0.167300
      7 CBT          0.5700   -16.8880    11.2950 c3         1 D4I      -0.181100
      8 CBS         -0.3430   -17.3360    12.4260 c          1 D4I       0.614100
      9 OBU         -1.0870   -16.5640    13.0110 o          1 D4I      -0.661100
     10 NBR         -0.2580   -18.6700    12.7400 ns         1 D4I      -0.464900
     11 CBL         -1.0180   -19.3820    13.8020 c6         1 D4I       0.021700
     12 CBK         -0.1300   -20.4880    14.4650 c6         1 D4I       0.388300
     13 OBV          1.1290   -19.9700    14.9340 os         1 D4I      -0.442000
     14 CCB          1.0830   -19.0120    16.0060 c3         1 D4I       0.152900
     15 OBJ          0.1620   -21.5120    13.4940 os         1 D4I      -0.442000
     16 CBI         -1.0150   -22.2120    13.0390 c6         1 D4I       0.080300
     17 CBP         -0.6830   -23.3760    12.0800 c6         1 D4I       0.184600
     18 OBQ         -1.9170   -23.9760    11.6130 os         1 D4I      -0.467000
     19 CBW         -2.8130   -23.0550    10.9180 c6         1 D4I       0.225000
     20 CBY         -4.1410   -23.8290    10.7120 c3         1 D4I      -0.057100
     21 CBX         -2.3010   -22.5840     9.4660 c          1 D4I       0.692000
     22 OCA         -2.4850   -21.4130     9.1480 o          1 D4I      -0.700000
     23 OBZ         -1.3930   -23.2250     8.9460 o          1 D4I      -0.700000
     24 OBO         -3.1240   -21.9700    11.8450 os         1 D4I      -0.436000
     25 CBN         -1.9610   -21.2320    12.3010 c6         1 D4I       0.149300
     26 CBM         -2.3260   -20.0610    13.2600 c6         1 D4I       0.170300
     27 OBD         -3.1990   -19.1150    12.5950 os         1 D4I      -0.383000
     28 CAW         -3.8960   -18.2000    13.4610 c6         1 D4I       0.389300
     29 CAX         -4.6200   -17.1020    12.6270 c6         1 D4I       0.082700
     30 CAY         -5.3820   -16.1640    13.6190 c6         1 D4I       0.141300
     31 OBA         -6.0850   -15.1240    12.9210 oh         1 D4I      -0.712000
     32 NBE         -3.6620   -16.3500    11.7820 ns         1 D4I      -0.486900
     33 CBF         -3.9030   -15.8670    10.5200 c          1 D4I       0.612100
     34 OBH         -4.9540   -16.0560     9.9250 o          1 D4I      -0.588100
     35 CBG         -2.7420   -15.0960     9.9050 c3         1 D4I      -0.184100
     36 OAV         -4.8690   -18.9350    14.2220 os         1 D4I      -0.451000
     37 CAU         -5.5450   -18.1410    15.2260 c6         1 D4I       0.184300
     38 CBB         -6.4660   -19.0880    16.0650 c3         1 D4I       0.172600
     39 OBC         -7.4480   -19.7930    15.2780 oh         1 D4I      -0.703000
     40 CAZ         -6.3390   -16.9870    14.5470 c6         1 D4I       0.108300
     41 O1          -6.9690   -16.1610    15.5650 os         1 D4I      -0.452000
     42 C1          -8.2540   -15.5950    15.2500 c6         1 D4I       0.385300
     43 O5          -8.0370   -14.3980    14.4750 os         1 D4I      -0.492000
     44 O6         -10.2770   -11.8900    12.8430 os         1 D4I      -0.463000
     45 CAO        -11.0350   -11.4490    14.0120 c6         1 D4I       0.229000
     46 CAQ        -12.4210   -11.0050    13.4750 c3         1 D4I      -0.057100
     47 CAP        -10.4000   -10.1940    14.7960 c          1 D4I       0.693000
     48 OAS         -9.5360    -9.5410    14.2190 o          1 D4I      -0.705500
     49 OAR        -10.4450   -10.2000    16.0220 o          1 D4I      -0.705500
     50 O4         -11.2850   -12.6300    14.8350 os         1 D4I      -0.450000
     51 O3         -11.1320   -14.2120    17.3520 oh         1 D4I      -0.674000
     52 C2          -9.0040   -15.2300    16.5710 c6         1 D4I       0.042700
     53 O7          -9.3730   -14.4370    19.3370 o          1 D4I      -0.647100
     54 H1          -9.4700   -12.5900    15.8550 h1         1 D4I       0.080700
     55 H2          -9.8520   -14.4920    13.4700 h1         1 D4I       0.047700
     56 H3          -8.5280   -12.8370    12.2140 h1         1 D4I       0.055700
     57 H4          -8.3470   -11.8160    13.6620 h1         1 D4I       0.055700
     58 H5          -6.2980   -13.8350    19.3240 hc         1 D4I       0.054700
     59 H6          -7.0620   -12.3790    18.8660 hc         1 D4I       0.054700
     60 H7          -7.4640   -13.0790    20.4900 hc         1 D4I       0.054700
     61 H8          -7.2650   -14.0580    17.0440 hn         1 D4I       0.333500
     62 H9         -10.9290   -15.2650    15.5810 h1         1 D4I       0.033700
     63 H10          0.4900   -15.8150    11.0890 hc         1 D4I       0.059700
     64 H11          1.6000   -17.1810    11.5280 hc         1 D4I       0.059700
     65 H12          0.3520   -17.4870    10.4040 hc         1 D4I       0.059700
     66 H13          0.4300   -19.2030    12.2210 hn         1 D4I       0.337500
     67 H16          2.1000   -18.7610    16.3330 h1         1 D4I       0.030700
     68 H17          0.5930   -18.0830    15.6880 h1         1 D4I       0.030700
     69 H18          0.5390   -19.4180    16.8690 h1         1 D4I       0.030700
     70 H19         -1.5320   -22.6260    13.9170 h1         1 D4I       0.038700
     71 H20         -0.0900   -24.1380    12.6050 h1         1 D4I       0.052200
     72 H21         -0.0950   -23.0130    11.2250 h1         1 D4I       0.052200
     73 H22         -4.5490   -24.1830    11.6660 hc         1 D4I       0.037033
     74 H23         -4.8970   -23.1930    10.2380 hc         1 D4I       0.037033
     75 H24         -3.9910   -24.7020    10.0650 hc         1 D4I       0.037033
     76 H26         -1.4380   -20.8140    11.4300 h1         1 D4I       0.085700
     77 H27         -2.8710   -20.4960    14.1120 h1         1 D4I       0.051700
     78 H28         -3.1820   -17.7230    14.1460 h2         1 D4I       0.000700
     79 H29         -5.3510   -17.6050    11.9790 h1         1 D4I       0.133700
     80 H30         -4.6290   -15.6970    14.2710 h1         1 D4I       0.023700
     81 H31         -6.7710   -14.7830    13.5610 ho         1 D4I       0.529000
     82 H32         -2.7360   -16.1750    12.1650 hn         1 D4I       0.309500
     83 H33         -2.9860   -14.6760     8.9230 hc         1 D4I       0.054033
     84 H34         -2.4040   -14.3270    10.6100 hc         1 D4I       0.054033
     85 H35         -1.8720   -15.7590     9.8470 hc         1 D4I       0.054033
     86 H36         -4.7890   -17.7130    15.9010 h1         1 D4I       0.032700
     87 H37         -5.8170   -19.8080    16.5830 h1         1 D4I       0.031700
     88 H38         -6.9630   -18.4910    16.8420 h1         1 D4I       0.031700
     89 H39         -7.8750   -20.4520    15.8730 ho         1 D4I       0.499000
     90 H40         -7.1190   -17.4520    13.9250 h1         1 D4I       0.091700
     91 H41         -8.8550   -16.3170    14.6770 h2         1 D4I       0.046700
     92 H42        -13.0820   -10.7040    14.2950 hc         1 D4I       0.035033
     93 H43        -12.3240   -10.1490    12.7970 hc         1 D4I       0.035033
     94 H44        -12.9150   -11.8150    12.9250 hc         1 D4I       0.035033
     95 H46        -10.5110   -14.2970    18.1290 ho         1 D4I       0.491000
     96 H47         -9.2180   -16.1640    17.1090 h1         1 D4I       0.079700
     97 C7          -8.3520   -14.0900    18.7610 c          1 D4I       0.613100
     98 H14         -1.2980   -18.6580    14.5800 h1         1 D4I       0.072700
     99 H15         -0.6690   -20.9380    15.3110 h2         1 D4I       0.015700
@<TRIPOS>BOND
     1     1     2 1   
     2     1     6 1   
     3     1    50 1   
     4     1    54 1   
     5     2     3 1   
     6     2    43 1   
     7     2    55 1   
     8     3    44 1   
     9     3    56 1   
    10     3    57 1   
    11     4    58 1   
    12     4    59 1   
    13     4    60 1   
    14     4    97 1   
    15     5    52 1   
    16     5    61 1   
    17     5    97 1   
    18     6    51 1   
    19     6    52 1   
    20     6    62 1   
    21     7     8 1   
    22     7    63 1   
    23     7    64 1   
    24     7    65 1   
    25     8     9 2   
    26     8    10 1   
    27    10    11 1   
    28    10    66 1   
    29    11    12 1   
    30    11    26 1   
    31    11    98 1   
    32    12    13 1   
    33    12    15 1   
    34    12    99 1   
    35    13    14 1   
    36    14    67 1   
    37    14    68 1   
    38    14    69 1   
    39    15    16 1   
    40    16    17 1   
    41    16    25 1   
    42    16    70 1   
    43    17    18 1   
    44    17    71 1   
    45    17    72 1   
    46    18    19 1   
    47    19    20 1   
    48    19    21 1   
    49    19    24 1   
    50    20    73 1   
    51    20    74 1   
    52    20    75 1   
    53    21    22 1   
    54    21    23 1   
    55    24    25 1   
    56    25    26 1   
    57    25    76 1   
    58    26    27 1   
    59    26    77 1   
    60    27    28 1   
    61    28    29 1   
    62    28    36 1   
    63    28    78 1   
    64    29    30 1   
    65    29    32 1   
    66    29    79 1   
    67    30    31 1   
    68    30    40 1   
    69    30    80 1   
    70    31    81 1   
    71    32    33 1   
    72    32    82 1   
    73    33    34 2   
    74    33    35 1   
    75    35    83 1   
    76    35    84 1   
    77    35    85 1   
    78    36    37 1   
    79    37    38 1   
    80    37    40 1   
    81    37    86 1   
    82    38    39 1   
    83    38    87 1   
    84    38    88 1   
    85    39    89 1   
    86    40    41 1   
    87    40    90 1   
    88    41    42 1   
    89    42    43 1   
    90    42    52 1   
    91    42    91 1   
    92    44    45 1   
    93    45    46 1   
    94    45    47 1   
    95    45    50 1   
    96    46    92 1   
    97    46    93 1   
    98    46    94 1   
    99    47    48 1   
   100    47    49 1   
   101    51    95 1   
   102    52    96 1   
   103    53    97 2   
@<TRIPOS>SUBSTRUCTURE
     1 D4I         1 TEMP              0 ****  ****    0 ROOT
