@<TRIPOS>MOLECULE
D4J
   53    57     1     0     0
SMALL
No Charge or Current Charge


@<TRIPOS>ATOM
      1 C4           4.6810    -0.8050    -1.2390 ca         1 D4J      -0.081500
      2 C14         -1.3580     0.7800     2.5040 c          1 D4J       0.599200
      3 C5           5.7000    -3.2230    -0.2160 ca         1 D4J      -0.145000
      4 C6           5.7820    -2.0450     0.5500 ca         1 D4J      -0.081500
      5 C11          2.0530     1.6530     1.0670 ca         1 D4J       0.392300
      6 C7           5.2620    -0.8390     0.0460 ca         1 D4J       0.093100
      7 C9           4.3370     1.1940     0.9840 ca         1 D4J       0.589300
      8 C12          0.5830     1.1440     0.9210 c6         1 D4J       0.167400
      9 C3           4.5990    -1.9840    -2.0030 ca         1 D4J      -0.145000
     10 C2           5.1060    -3.1880    -1.4880 ca         1 D4J       0.174000
     11 O8           5.3710     0.3030     0.8090 os         1 D4J      -0.365400
     12 N10          3.0610     0.7630     0.8800 nb         1 D4J      -0.750000
     13 N13         -0.1490     1.3540     2.1910 ns         1 D4J      -0.511900
     14 C15         -1.7950    -0.3310     1.6010 ce         1 D4J      -0.286600
     15 S16         -3.4770    -0.8980     1.8450 ss         1 D4J      -0.011600
     16 C17         -4.2830    -0.4340     0.3120 ca         1 D4J      -0.105000
     17 C18         -5.2240    -1.2910    -0.2980 ca         1 D4J       0.124000
     18 C19         -5.8400    -0.9160    -1.5050 ca         1 D4J      -0.093000
     19 C20         -5.5220     0.3130    -2.1080 ca         1 D4J      -0.109000
     20 C21         -4.5890     1.1700    -1.5020 ca         1 D4J      -0.099000
     21 C22         -3.9730     0.7990    -0.2950 ca         1 D4J      -0.103000
     22 Cl23        -5.6340    -2.8450     0.4240 cl         1 D4J      -0.190000
     23 C24         -0.9400    -0.8550     0.7050 c2         1 D4J       0.230900
     24 O25         -1.2530    -1.8600    -0.1240 oh         1 D4J      -0.508100
     25 C26          0.4940    -0.3820     0.6070 c6         1 D4J      -0.041200
     26 C28         -0.1110     1.9260    -0.2020 cc         1 D4J      -0.145300
     27 C29          0.0120     1.6590    -1.5480 cd         1 D4J      -0.228000
     28 S30         -0.9410     2.7740    -2.5400 ss         1 D4J       0.220000
     29 C31         -1.4680     3.6280    -1.0850 cd         1 D4J      -0.247000
     30 C32         -0.9440     3.0570     0.0440 cc         1 D4J      -0.119000
     31 C33          2.3080     3.0040     1.3790 ca         1 D4J      -0.181000
     32 C34          3.6310     3.4510     1.5040 ca         1 D4J      -0.044000
     33 C35          4.6600     2.5200     1.3030 ca         1 D4J      -0.172000
     34 H1           4.2950     0.1280    -1.6420 ha         1 D4J       0.131000
     35 H2           6.0950    -4.1580     0.1720 ha         1 D4J       0.136000
     36 H3           6.2430    -2.0660     1.5350 ha         1 D4J       0.131000
     37 H4           4.1470    -1.9650    -2.9920 ha         1 D4J       0.136000
     38 H5           0.1700     2.0800     2.8200 hn         1 D4J       0.316500
     39 H6          -6.5620    -1.5810    -1.9730 ha         1 D4J       0.128000
     40 H7          -6.0000     0.6010    -3.0430 ha         1 D4J       0.117000
     41 H8          -4.3430     2.1230    -1.9660 ha         1 D4J       0.114000
     42 H9          -3.2570     1.4730     0.1670 ha         1 D4J       0.128000
     43 H10         -2.2010    -2.0540     0.0290 ho         1 D4J       0.499000
     44 H11          0.9250    -0.6200    -0.3730 hc         1 D4J       0.097700
     45 H12          1.0810    -0.9480     1.3410 hc         1 D4J       0.097700
     46 H13          0.5930     0.8860    -2.0350 h4         1 D4J       0.157000
     47 H14         -2.1230     4.4860    -1.1630 h4         1 D4J       0.155000
     48 H15         -1.1470     3.4380     1.0410 ha         1 D4J       0.140000
     49 H16          1.4840     3.6990     1.5190 ha         1 D4J       0.131000
     50 H17          3.8530     4.4890     1.7460 ha         1 D4J       0.127000
     51 H18          5.7010     2.8150     1.3880 ha         1 D4J       0.144000
     52 F1           5.0270    -4.3190    -2.2230 f          1 D4J      -0.175000
     53 O27         -2.0050     1.1760     3.4580 o          1 D4J      -0.534000
@<TRIPOS>BOND
     1     1     6 ar  
     2     1     9 ar  
     3     1    34 1   
     4     2    13 1   
     5     2    14 1   
     6     2    53 2   
     7     3     4 ar  
     8     3    10 ar  
     9     3    35 1   
    10     4     6 ar  
    11     4    36 1   
    12     5     8 1   
    13     5    12 ar  
    14     5    31 ar  
    15     6    11 1   
    16     7    11 1   
    17     7    12 ar  
    18     7    33 ar  
    19     8    13 1   
    20     8    25 1   
    21     8    26 1   
    22     9    10 ar  
    23     9    37 1   
    24    10    52 1   
    25    13    38 1   
    26    14    15 1   
    27    14    23 2   
    28    15    16 1   
    29    16    17 ar  
    30    16    21 ar  
    31    17    18 ar  
    32    17    22 1   
    33    18    19 ar  
    34    18    39 1   
    35    19    20 ar  
    36    19    40 1   
    37    20    21 ar  
    38    20    41 1   
    39    21    42 1   
    40    23    24 1   
    41    23    25 1   
    42    24    43 1   
    43    25    44 1   
    44    25    45 1   
    45    26    27 2   
    46    26    30 1   
    47    27    28 1   
    48    27    46 1   
    49    28    29 1   
    50    29    30 2   
    51    29    47 1   
    52    30    48 1   
    53    31    32 ar  
    54    31    49 1   
    55    32    33 ar  
    56    32    50 1   
    57    33    51 1   
@<TRIPOS>SUBSTRUCTURE
     1 D4J         1 TEMP              0 ****  ****    0 ROOT
