@<TRIPOS>MOLECULE
D4J
   53    57     1     0     0
SMALL
bcc


@<TRIPOS>ATOM
      1 C4           4.8490    -0.6100    -1.5350 ca         1 D4J      -0.099500
      2 C14         -1.3360     0.4650     2.2180 c          1 D4J       0.741700
      3 C5           4.9680    -2.8700     0.0870 ca         1 D4J      -0.163000
      4 C6           5.1530    -1.6090     0.6360 ca         1 D4J      -0.099500
      5 C11          2.0290     1.6360     1.1250 ca         1 D4J       0.457600
      6 C7           5.0950    -0.4900    -0.1780 ca         1 D4J       0.093100
      7 C9           4.2750     1.4640     0.8130 ca         1 D4J       0.654600
      8 C12          0.6710     0.9860     0.8890 c6         1 D4J       0.167400
      9 C3           4.6620    -1.8670    -2.0920 ca         1 D4J      -0.163000
     10 C2           4.7220    -2.9740    -1.2680 ca         1 D4J       0.138900
     11 O8           5.3330     0.7540     0.3670 os         1 D4J      -0.365400
     12 N10          3.0770     0.9490     0.6940 nb         1 D4J      -0.750000
     13 N13         -0.1450     1.1090     2.0860 ns         1 D4J      -0.578900
     14 C15         -1.5500    -0.6600     1.2960 ce         1 D4J      -0.286600
     15 S16         -3.0850    -1.4990     1.3230 ss         1 D4J      -0.138500
     16 C17         -4.0530    -0.6040     0.1370 ca         1 D4J       0.021900
     17 C18         -5.3800    -0.9880    -0.0470 ca         1 D4J       0.032400
     18 C19         -6.2000    -0.3460    -0.9600 ca         1 D4J      -0.111000
     19 C20         -5.6940     0.7060    -1.7100 ca         1 D4J      -0.127000
     20 C21         -4.3750     1.1010    -1.5380 ca         1 D4J      -0.117000
     21 C22         -3.5610     0.4500    -0.6240 ca         1 D4J      -0.121000
     22 CL23        -6.0180    -2.3030     0.8840 cl         1 D4J      -0.098400
     23 C24         -0.5260    -1.1410     0.5470 c2         1 D4J       0.230900
     24 O25         -0.6050    -2.1890    -0.2420 oh         1 D4J      -0.469100
     25 C26          0.8210    -0.5040     0.5970 c6         1 D4J      -0.041200
     26 C28          0.0190     1.7100    -0.2830 cc         1 D4J      -0.145300
     27 C29          0.1690     1.3690    -1.5950 cd         1 D4J      -0.101100
     28 S30         -0.6820     2.4300    -2.6340 ss         1 D4J      -0.069800
     29 C31         -1.2480     3.3610    -1.3140 cd         1 D4J      -0.120100
     30 C32         -0.8000     2.8680    -0.1280 cc         1 D4J      -0.137000
     31 C33          2.1540     2.8910     1.6970 ca         1 D4J      -0.264300
     32 C34          3.4330     3.4240     1.8260 ca         1 D4J      -0.062000
     33 C35          4.5280     2.7110     1.3800 ca         1 D4J      -0.255300
     34 H1           4.8060     0.2700    -2.1640 ha         1 D4J       0.149000
     35 H2           5.0150    -3.7540     0.7090 ha         1 D4J       0.154000
     36 H3           5.3450    -1.5040     1.6960 ha         1 D4J       0.149000
     37 H4           4.4740    -1.9780    -3.1510 ha         1 D4J       0.154000
     38 H5          -0.0180     1.9100     2.6860 hn         1 D4J       0.316500
     39 H6          -7.2250    -0.6670    -1.0820 ha         1 D4J       0.146000
     40 H7          -6.3320     1.2080    -2.4240 ha         1 D4J       0.135000
     41 H8          -3.9700     1.9180    -2.1190 ha         1 D4J       0.132000
     42 H9          -2.5330     0.7680    -0.5050 ha         1 D4J       0.146000
     43 H10         -1.4930    -2.5860    -0.1830 ho         1 D4J       0.460000
     44 H11          1.3630    -0.6820    -0.3290 hc         1 D4J       0.097700
     45 H12          1.4060    -0.9810     1.3890 hc         1 D4J       0.097700
     46 H13          0.7380     0.5560    -2.0200 h4         1 D4J       0.175000
     47 H14         -1.8870     4.2150    -1.4770 h4         1 D4J       0.173000
     48 H15         -1.0630     3.3080     0.8240 ha         1 D4J       0.158000
     49 H16          1.2970     3.4640     2.0270 ha         1 D4J       0.149000
     50 H17          3.5710     4.3990     2.2730 ha         1 D4J       0.145000
     51 H18          5.5340     3.0980     1.4640 ha         1 D4J       0.162000
     52 F1           4.5410    -4.1920    -1.8040 f          1 D4J      -0.139900
     53 O27         -2.1520     0.7820     3.0680 o          1 D4J      -0.609500
@<TRIPOS>BOND
     1     1     6 ar  
     2     1     9 ar  
     3     1    34 1   
     4     2    13 1   
     5     2    14 1   
     6     2    53 2   
     7     3     4 ar  
     8     3    10 ar  
     9     3    35 1   
    10     4     6 ar  
    11     4    36 1   
    12     5     8 1   
    13     5    12 ar  
    14     5    31 ar  
    15     6    11 1   
    16     7    11 1   
    17     7    12 ar  
    18     7    33 ar  
    19     8    13 1   
    20     8    25 1   
    21     8    26 1   
    22     9    10 ar  
    23     9    37 1   
    24    10    52 1   
    25    13    38 1   
    26    14    15 1   
    27    14    23 2   
    28    15    16 1   
    29    16    17 ar  
    30    16    21 ar  
    31    17    18 ar  
    32    17    22 1   
    33    18    19 ar  
    34    18    39 1   
    35    19    20 ar  
    36    19    40 1   
    37    20    21 ar  
    38    20    41 1   
    39    21    42 1   
    40    23    24 1   
    41    23    25 1   
    42    24    43 1   
    43    25    44 1   
    44    25    45 1   
    45    26    27 2   
    46    26    30 1   
    47    27    28 1   
    48    27    46 1   
    49    28    29 1   
    50    29    30 2   
    51    29    47 1   
    52    30    48 1   
    53    31    32 ar  
    54    31    49 1   
    55    32    33 ar  
    56    32    50 1   
    57    33    51 1   
@<TRIPOS>SUBSTRUCTURE
     1 D4J         1 TEMP              0 ****  ****    0 ROOT
