@<TRIPOS>MOLECULE
D4K
   41    43     1     0     0
SMALL
bcc


@<TRIPOS>ATOM
      1 C14         -1.6110    -1.5280    -0.9360 ca         1 D4K      -0.120500
      2 C10         -1.7540    -1.5790     1.4520 ca         1 D4K      -0.120500
      3 C13         -2.3040    -2.7280    -1.0030 ca         1 D4K      -0.128500
      4 C11         -2.4420    -2.7840     1.3910 ca         1 D4K      -0.128500
      5 C12         -2.7210    -3.3630     0.1610 ca         1 D4K      -0.128000
      6 C01          5.3600    -0.9670     0.6650 c3         1 D4K       0.126700
      7 C03          3.1200    -0.3490     0.1780 ca         1 D4K       0.138100
      8 C04          3.4010    -0.1220    -1.1660 ca         1 D4K      -0.214000
      9 C05          2.3750     0.2960    -2.0060 ca         1 D4K      -0.094000
     10 C06          1.0880     0.4890    -1.5340 ca         1 D4K      -0.142000
     11 C07          0.8000     0.2590    -0.1880 ca         1 D4K      -0.032300
     12 C08         -0.5980     0.3880     0.3810 c3         1 D4K       0.026900
     13 C09         -1.3320    -0.9340     0.2940 ca         1 D4K      -0.072300
     14 C15         -1.4250     1.5150    -0.2370 c5         1 D4K       0.165500
     15 C17         -1.7840     3.8490    -0.0060 c5         1 D4K       0.147800
     16 C18         -3.1420     3.1270    -0.0210 c5         1 D4K      -0.101400
     17 C19         -2.7960     1.7090     0.4130 c5         1 D4K      -0.108400
     18 C20          1.8230    -0.1520     0.6550 ca         1 D4K      -0.161000
     19 N16         -0.7530     2.8080    -0.1200 n7         1 D4K      -0.794200
     20 H1          -1.2830    -1.0570    -1.8550 ha         1 D4K       0.130000
     21 H2          -1.5400    -1.1340     2.4170 ha         1 D4K       0.130000
     22 H3          -2.5160    -3.1710    -1.9680 ha         1 D4K       0.130000
     23 H4          -2.7540    -3.2710     2.3060 ha         1 D4K       0.130000
     24 H5          -3.2570    -4.3020     0.1070 ha         1 D4K       0.130000
     25 H6           5.4290    -1.7460    -0.0980 h1         1 D4K       0.039033
     26 H7           5.8170    -0.0530     0.2780 h1         1 D4K       0.039033
     27 H8           5.9150    -1.2890     1.5430 h1         1 D4K       0.039033
     28 H9           4.3940    -0.2630    -1.5710 ha         1 D4K       0.133000
     29 H10          2.5950     0.4760    -3.0510 ha         1 D4K       0.128000
     30 H11          0.3150     0.8180    -2.2160 ha         1 D4K       0.137000
     31 H12         -0.4940     0.6280     1.4460 hc         1 D4K       0.052700
     32 H13         -1.5890     1.2980    -1.3020 h1         1 D4K       0.066700
     33 H14         -1.7150     4.5690    -0.8260 h1         1 D4K       0.042200
     34 H15         -1.6550     4.4110     0.9210 h1         1 D4K       0.042200
     35 H16         -3.8770     3.6120     0.6220 hc         1 D4K       0.048700
     36 H17         -3.5560     3.1130    -1.0320 hc         1 D4K       0.048700
     37 H18         -3.5320     0.9680     0.1010 hc         1 D4K       0.051200
     38 H19         -2.6960     1.6450     1.5020 hc         1 D4K       0.051200
     39 H20          1.6210    -0.3340     1.7050 ha         1 D4K       0.140000
     40 H21         -0.1790     2.8130     0.7130 hn         1 D4K       0.351800
     41 O02          4.0280    -0.7550     1.0880 os         1 D4K      -0.321900
@<TRIPOS>BOND
     1     1     3 ar  
     2     1    13 ar  
     3     1    20 1   
     4     2     4 ar  
     5     2    13 ar  
     6     2    21 1   
     7     3     5 ar  
     8     3    22 1   
     9     4     5 ar  
    10     4    23 1   
    11     5    24 1   
    12     6    25 1   
    13     6    26 1   
    14     6    27 1   
    15     6    41 1   
    16     7     8 ar  
    17     7    18 ar  
    18     7    41 1   
    19     8     9 ar  
    20     8    28 1   
    21     9    10 ar  
    22     9    29 1   
    23    10    11 ar  
    24    10    30 1   
    25    11    12 1   
    26    11    18 ar  
    27    12    13 1   
    28    12    14 1   
    29    12    31 1   
    30    14    17 1   
    31    14    19 1   
    32    14    32 1   
    33    15    16 1   
    34    15    19 1   
    35    15    33 1   
    36    15    34 1   
    37    16    17 1   
    38    16    35 1   
    39    16    36 1   
    40    17    37 1   
    41    17    38 1   
    42    18    39 1   
    43    19    40 1   
@<TRIPOS>SUBSTRUCTURE
     1 D4K         1 TEMP              0 ****  ****    0 ROOT
