@<TRIPOS>MOLECULE
D4K
   41    43     1     0     0
SMALL
No Charge or Current Charge


@<TRIPOS>ATOM
      1 C14         -1.7130    -1.4370    -0.9420 ca         1 D4K      -0.102500
      2 C10         -1.6220    -1.6840     1.4760 ca         1 D4K      -0.102500
      3 C13         -2.3840    -2.6680    -1.0420 ca         1 D4K      -0.110500
      4 C11         -2.2940    -2.9150     1.3750 ca         1 D4K      -0.110500
      5 C12         -2.6760    -3.4070     0.1160 ca         1 D4K      -0.110000
      6 C01          5.4600    -1.1580     0.6760 c3         1 D4K       0.149900
      7 C03          3.1480    -0.4300     0.2050 ca         1 D4K       0.138100
      8 C04          3.4500    -0.0830    -1.1280 ca         1 D4K      -0.196000
      9 C05          2.4420     0.4270    -1.9630 ca         1 D4K      -0.076000
     10 C06          1.1370     0.5950    -1.4730 ca         1 D4K      -0.124000
     11 C07          0.8220     0.2610    -0.1380 ca         1 D4K      -0.032300
     12 C08         -0.5970     0.4080     0.4330 c3         1 D4K       0.026900
     13 C09         -1.3280    -0.9330     0.3190 ca         1 D4K      -0.072300
     14 C15         -1.4360     1.5880    -0.1520 c5         1 D4K       0.165500
     15 C17         -1.8760     3.8740    -0.3440 c5         1 D4K       0.147800
     16 C18         -3.2320     3.1730    -0.0320 c5         1 D4K      -0.101400
     17 C19         -2.8070     1.7910     0.5350 c5         1 D4K      -0.108400
     18 C20          1.8410    -0.2590     0.6880 ca         1 D4K      -0.143000
     19 N16         -0.8250     2.9160     0.0740 n7         1 D4K      -0.849400
     20 H1          -1.4890    -0.8790    -1.8470 ha         1 D4K       0.112000
     21 H2          -1.3310    -1.3160     2.4570 ha         1 D4K       0.112000
     22 H3          -2.6770    -3.0490    -2.0180 ha         1 D4K       0.112000
     23 H4          -2.5170    -3.4870     2.2730 ha         1 D4K       0.112000
     24 H5          -3.1960    -4.3590     0.0390 ha         1 D4K       0.112000
     25 H6           5.5170    -1.8700    -0.1570 h1         1 D4K       0.039033
     26 H7           5.9310    -0.2160     0.3680 h1         1 D4K       0.039033
     27 H8           6.0380    -1.5690     1.5140 h1         1 D4K       0.039033
     28 H9           4.4510    -0.2040    -1.5330 ha         1 D4K       0.115000
     29 H10          2.6720     0.6910    -2.9930 ha         1 D4K       0.110000
     30 H11          0.3750     0.9860    -2.1420 ha         1 D4K       0.119000
     31 H12         -0.4810     0.6310     1.5010 hc         1 D4K       0.052700
     32 H13         -1.5860     1.4140    -1.2280 h1         1 D4K       0.066700
     33 H14         -1.7960     4.0770    -1.4220 h1         1 D4K       0.042200
     34 H15         -1.7730     4.8330     0.1820 h1         1 D4K       0.042200
     35 H16         -3.8370     3.7410     0.6840 hc         1 D4K       0.048700
     36 H17         -3.8290     3.0640    -0.9450 hc         1 D4K       0.048700
     37 H18         -3.5240     1.0000     0.2880 hc         1 D4K       0.051200
     38 H19         -2.7120     1.8190     1.6280 hc         1 D4K       0.051200
     39 H20          1.6170    -0.5360     1.7140 ha         1 D4K       0.122000
     40 H21         -0.6800     3.0210     1.0840 hn         1 D4K       0.407000
     41 O02          4.0930    -0.9420     1.0720 os         1 D4K      -0.345100
@<TRIPOS>BOND
     1     1     3 ar  
     2     1    13 ar  
     3     1    20 1   
     4     2     4 ar  
     5     2    13 ar  
     6     2    21 1   
     7     3     5 ar  
     8     3    22 1   
     9     4     5 ar  
    10     4    23 1   
    11     5    24 1   
    12     6    25 1   
    13     6    26 1   
    14     6    27 1   
    15     6    41 1   
    16     7     8 ar  
    17     7    18 ar  
    18     7    41 1   
    19     8     9 ar  
    20     8    28 1   
    21     9    10 ar  
    22     9    29 1   
    23    10    11 ar  
    24    10    30 1   
    25    11    12 1   
    26    11    18 ar  
    27    12    13 1   
    28    12    14 1   
    29    12    31 1   
    30    14    17 1   
    31    14    19 1   
    32    14    32 1   
    33    15    16 1   
    34    15    19 1   
    35    15    33 1   
    36    15    34 1   
    37    16    17 1   
    38    16    35 1   
    39    16    36 1   
    40    17    37 1   
    41    17    38 1   
    42    18    39 1   
    43    19    40 1   
@<TRIPOS>SUBSTRUCTURE
     1 D4K         1 TEMP              0 ****  ****    0 ROOT
