@<TRIPOS>MOLECULE
D4L
   62    67     1     0     0
SMALL
No Charge or Current Charge


@<TRIPOS>ATOM
      1 C21          8.1050     2.3270    -0.5230 c3         1 D4L      -0.047800
      2 C7           7.1290     1.1690    -0.3820 ca         1 D4L      -0.071300
      3 C9           7.5960    -0.1560    -0.3770 ca         1 D4L      -0.101000
      4 C10          6.6920    -1.2220    -0.2440 ca         1 D4L      -0.077000
      5 C5           5.3110    -0.9890    -0.1110 ca         1 D4L       0.233000
      6 N3           4.4640    -2.0410     0.0160 nb         1 D4L      -0.655000
      7 C1           3.1360    -1.7650     0.1420 ca         1 D4L       0.351300
      8 C20          2.2780    -3.0210     0.2780 c3         1 D4L      -0.138400
      9 C8           5.7500     1.4140    -0.2480 ca         1 D4L      -0.074000
     10 C6           4.8300     0.3570    -0.1130 ca         1 D4L       0.230000
     11 N4           3.5090     0.6370     0.0130 nb         1 D4L      -0.632000
     12 C2           2.6360    -0.4150     0.1430 ca         1 D4L       0.321700
     13 C11          1.1900    -0.0630     0.2790 cc         1 D4L       0.338600
     14 C19          0.7220     1.2910     0.2740 cc         1 D4L      -0.384600
     15 C12         -0.6150     1.2430     0.4130 cd         1 D4L       0.463500
     16 N14         -1.4130     2.3560     0.4360 nd         1 D4L      -0.789000
     17 C16         -2.6660     1.9440     0.5770 cc         1 D4L       0.696900
     18 N24         -3.6790     2.8710     0.6030 nh         1 D4L      -0.790300
     19 C26         -3.3800     4.1800     1.2590 c5         1 D4L       0.231300
     20 C28         -3.5400     5.1650     0.0730 c5         1 D4L      -0.096400
     21 C27         -4.7360     4.5320    -0.6840 c5         1 D4L      -0.096400
     22 C25         -4.3090     3.0420    -0.7310 c5         1 D4L       0.231300
     23 C17         -3.1160     0.5830     0.6640 cc         1 D4L      -0.380000
     24 C15         -2.2360    -0.4760     0.6250 cd         1 D4L       0.421000
     25 N13         -0.9030    -0.0890     0.4990 na         1 D4L       0.050900
     26 N18          0.1910    -0.9470     0.4140 nd         1 D4L      -0.628100
     27 N22         -2.5760    -1.8050     0.6980 nu         1 D4L      -0.961200
     28 C23         -3.9310    -2.3300     0.5010 c6         1 D4L       0.244500
     29 C33         -3.9860    -3.7920     0.9970 c6         1 D4L      -0.135900
     30 C32         -5.3650    -4.4100     0.6770 c6         1 D4L       0.157600
     31 O30         -5.6310    -4.3030    -0.7390 os         1 D4L      -0.442000
     32 C29         -5.6810    -2.9450    -1.2260 c6         1 D4L       0.157600
     33 C31         -4.3180    -2.2560    -0.9950 c6         1 D4L      -0.135900
     34 H1           8.9960     2.0340    -1.0910 hc         1 D4L       0.045033
     35 H2           7.6470     3.1750    -1.0460 hc         1 D4L       0.045033
     36 H3           8.4370     2.6800     0.4610 hc         1 D4L       0.045033
     37 H4           8.6600    -0.3620    -0.4770 ha         1 D4L       0.115000
     38 H5           7.0640    -2.2440    -0.2420 ha         1 D4L       0.131000
     39 H6           1.7340    -3.0250     1.2290 hc         1 D4L       0.057033
     40 H7           1.5520    -3.0930    -0.5400 hc         1 D4L       0.057033
     41 H8           2.8810    -3.9370     0.2510 hc         1 D4L       0.057033
     42 H9           5.3830     2.4370    -0.2460 ha         1 D4L       0.131000
     43 H10          1.3320     2.1790     0.1730 ha         1 D4L       0.238000
     44 H11         -4.1220     4.3900     2.0410 h1         1 D4L       0.053200
     45 H12         -2.3880     4.2520     1.7270 h1         1 D4L       0.053200
     46 H13         -3.7390     6.1900     0.4050 hc         1 D4L       0.054950
     47 H14         -2.6370     5.1880    -0.5500 hc         1 D4L       0.054950
     48 H15         -5.6740     4.6590    -0.1290 hc         1 D4L       0.054950
     49 H16         -4.8830     4.9560    -1.6830 hc         1 D4L       0.054950
     50 H17         -3.5930     2.8640    -1.5480 h1         1 D4L       0.053200
     51 H18         -5.1690     2.3750    -0.8780 h1         1 D4L       0.053200
     52 H19         -4.1780     0.4140     0.7680 ha         1 D4L       0.132000
     53 H20         -1.7730    -2.4260     0.5800 hn         1 D4L       0.522000
     54 H21         -4.6600    -1.7480     1.0860 h1         1 D4L       0.059700
     55 H22         -3.2010    -4.3910     0.5160 hc         1 D4L       0.062200
     56 H23         -3.8020    -3.8330     2.0790 hc         1 D4L       0.062200
     57 H24         -5.3790    -5.4710     0.9650 h1         1 D4L       0.048450
     58 H25         -6.1580    -3.8920     1.2370 h1         1 D4L       0.048450
     59 H26         -5.9200    -2.9580    -2.3000 h1         1 D4L       0.048450
     60 H27         -6.4810    -2.4000    -0.7050 h1         1 D4L       0.048450
     61 H28         -4.3720    -1.2100    -1.3260 hc         1 D4L       0.062200
     62 H29         -3.5530    -2.7460    -1.6120 hc         1 D4L       0.062200
@<TRIPOS>BOND
     1     1     2 1   
     2     1    34 1   
     3     1    35 1   
     4     1    36 1   
     5     2     3 ar  
     6     2     9 ar  
     7     3     4 ar  
     8     3    37 1   
     9     4     5 ar  
    10     4    38 1   
    11     5     6 ar  
    12     5    10 ar  
    13     6     7 ar  
    14     7     8 1   
    15     7    12 ar  
    16     8    39 1   
    17     8    40 1   
    18     8    41 1   
    19     9    10 ar  
    20     9    42 1   
    21    10    11 ar  
    22    11    12 ar  
    23    12    13 1   
    24    13    14 1   
    25    13    26 2   
    26    14    15 2   
    27    14    43 1   
    28    15    16 1   
    29    15    25 1   
    30    16    17 2   
    31    17    18 1   
    32    17    23 1   
    33    18    19 1   
    34    18    22 1   
    35    19    20 1   
    36    19    44 1   
    37    19    45 1   
    38    20    21 1   
    39    20    46 1   
    40    20    47 1   
    41    21    22 1   
    42    21    48 1   
    43    21    49 1   
    44    22    50 1   
    45    22    51 1   
    46    23    24 2   
    47    23    52 1   
    48    24    25 1   
    49    24    27 1   
    50    25    26 1   
    51    27    28 1   
    52    27    53 1   
    53    28    29 1   
    54    28    33 1   
    55    28    54 1   
    56    29    30 1   
    57    29    55 1   
    58    29    56 1   
    59    30    31 1   
    60    30    57 1   
    61    30    58 1   
    62    31    32 1   
    63    32    33 1   
    64    32    59 1   
    65    32    60 1   
    66    33    61 1   
    67    33    62 1   
@<TRIPOS>SUBSTRUCTURE
     1 D4L         1 TEMP              0 ****  ****    0 ROOT
