@<TRIPOS>MOLECULE
D4L
   62    67     1     0     0
SMALL
bcc


@<TRIPOS>ATOM
      1 C21          8.3390     1.8340     0.0310 c3         1 D4L      -0.047800
      2 C7           7.2420     0.8180     0.0220 ca         1 D4L      -0.071300
      3 C9           7.5690    -0.5620    -0.0450 ca         1 D4L      -0.119000
      4 C10          6.6040    -1.5310    -0.0600 ca         1 D4L      -0.160300
      5 C5           5.2430    -1.1660    -0.0050 ca         1 D4L       0.298300
      6 N3           4.2740    -2.1080    -0.0220 nb         1 D4L      -0.655000
      7 C1           3.0210    -1.7430     0.0350 ca         1 D4L       0.351300
      8 C20          2.0060    -2.8440     0.0210 c3         1 D4L      -0.138400
      9 C8           5.9190     1.1780     0.0840 ca         1 D4L      -0.157300
     10 C6           4.9020     0.1990     0.0710 ca         1 D4L       0.295300
     11 N4           3.6100     0.5740     0.1270 nb         1 D4L      -0.632000
     12 C2           2.6740    -0.3430     0.1110 ca         1 D4L       0.321700
     13 C11          1.3030     0.1640     0.1620 cc         1 D4L       0.338600
     14 C19          0.9410     1.5190     0.1300 cc         1 D4L      -0.334600
     15 C12         -0.4460     1.5220     0.1850 cd         1 D4L       0.463500
     16 N14         -1.3510     2.4950     0.1720 nd         1 D4L      -0.789000
     17 C16         -2.6240     2.1310     0.2190 cc         1 D4L       0.762200
     18 N24         -3.5440     3.1100     0.1780 nh         1 D4L      -0.790300
     19 C26         -3.1860     4.5100     0.0000 c5         1 D4L       0.231300
     20 C28         -4.5100     5.1560    -0.3900 c5         1 D4L      -0.096400
     21 C27         -5.5420     4.3100     0.3480 c5         1 D4L      -0.096400
     22 C25         -4.9780     2.8970     0.2340 c5         1 D4L       0.231300
     23 C17         -3.0430     0.7680     0.2940 cc         1 D4L      -0.463300
     24 C15         -2.0940    -0.2230     0.3140 cd         1 D4L       0.333300
     25 N13         -0.7910     0.1880     0.2540 na         1 D4L       0.000200
     26 N18          0.2510    -0.6440     0.2390 nd         1 D4L      -0.628100
     27 N22         -2.2900    -1.5470     0.3950 nu         1 D4L      -0.767600
     28 C23         -3.5850    -2.1840     0.3070 c6         1 D4L       0.244500
     29 C33         -3.4810    -3.6250     0.7940 c6         1 D4L      -0.135900
     30 C32         -4.8210    -4.3310     0.6300 c6         1 D4L       0.134400
     31 O30         -5.2870    -4.2780    -0.6920 os         1 D4L      -0.395600
     32 C29         -5.4680    -2.9600    -1.1410 c6         1 D4L       0.134400
     33 C31         -4.1690    -2.1670    -1.1060 c6         1 D4L      -0.135900
     34 H1           9.0060     1.7010    -0.8210 hc         1 D4L       0.045033
     35 H2           7.9510     2.8500    -0.0000 hc         1 D4L       0.045033
     36 H3           8.9470     1.7410     0.9310 hc         1 D4L       0.045033
     37 H4           8.6120    -0.8500    -0.0840 ha         1 D4L       0.133000
     38 H5           6.8630    -2.5810    -0.1080 ha         1 D4L       0.149000
     39 H6           1.4290    -2.8620     0.9450 hc         1 D4L       0.057033
     40 H7           1.2820    -2.7170    -0.7820 hc         1 D4L       0.057033
     41 H8           2.5130    -3.8000    -0.0930 hc         1 D4L       0.057033
     42 H9           5.6310     2.2210     0.1430 ha         1 D4L       0.149000
     43 H10          1.5850     2.3770     0.0600 ha         1 D4L       0.188000
     44 H11         -2.7880     4.9300     0.9290 h1         1 D4L       0.053200
     45 H12         -2.4130     4.6200    -0.7590 h1         1 D4L       0.053200
     46 H13         -4.5510     6.2120    -0.1260 hc         1 D4L       0.054950
     47 H14         -4.6620     5.0810    -1.4690 hc         1 D4L       0.054950
     48 H15         -5.5940     4.6060     1.3980 hc         1 D4L       0.054950
     49 H16         -6.5460     4.3880    -0.0660 hc         1 D4L       0.054950
     50 H17         -5.3400     2.3990    -0.6740 h1         1 D4L       0.053200
     51 H18         -5.2640     2.2760     1.0870 h1         1 D4L       0.053200
     52 H19         -4.0880     0.5060     0.3240 ha         1 D4L       0.150000
     53 H20         -1.4650    -2.1190     0.3020 hn         1 D4L       0.466800
     54 H21         -4.2680    -1.6520     0.9800 h1         1 D4L       0.059700
     55 H22         -2.7200    -4.1540     0.2100 hc         1 D4L       0.062200
     56 H23         -3.1730    -3.6570     1.8410 hc         1 D4L       0.062200
     57 H24         -4.7290    -5.3840     0.8970 h1         1 D4L       0.048450
     58 H25         -5.5550    -3.8850     1.3200 h1         1 D4L       0.048450
     59 H26         -5.8550    -3.0190    -2.1590 h1         1 D4L       0.048450
     60 H27         -6.2310    -2.4470    -0.5330 h1         1 D4L       0.048450
     61 H28         -4.3530    -1.1440    -1.4420 hc         1 D4L       0.062200
     62 H29         -3.4470    -2.6100    -1.7980 hc         1 D4L       0.062200
@<TRIPOS>BOND
     1     1     2 1   
     2     1    34 1   
     3     1    35 1   
     4     1    36 1   
     5     2     3 ar  
     6     2     9 ar  
     7     3     4 ar  
     8     3    37 1   
     9     4     5 ar  
    10     4    38 1   
    11     5     6 ar  
    12     5    10 ar  
    13     6     7 ar  
    14     7     8 1   
    15     7    12 ar  
    16     8    39 1   
    17     8    40 1   
    18     8    41 1   
    19     9    10 ar  
    20     9    42 1   
    21    10    11 ar  
    22    11    12 ar  
    23    12    13 1   
    24    13    14 1   
    25    13    26 2   
    26    14    15 2   
    27    14    43 1   
    28    15    16 1   
    29    15    25 1   
    30    16    17 2   
    31    17    18 1   
    32    17    23 1   
    33    18    19 1   
    34    18    22 1   
    35    19    20 1   
    36    19    44 1   
    37    19    45 1   
    38    20    21 1   
    39    20    46 1   
    40    20    47 1   
    41    21    22 1   
    42    21    48 1   
    43    21    49 1   
    44    22    50 1   
    45    22    51 1   
    46    23    24 2   
    47    23    52 1   
    48    24    25 1   
    49    24    27 1   
    50    25    26 1   
    51    27    28 1   
    52    27    53 1   
    53    28    29 1   
    54    28    33 1   
    55    28    54 1   
    56    29    30 1   
    57    29    55 1   
    58    29    56 1   
    59    30    31 1   
    60    30    57 1   
    61    30    58 1   
    62    31    32 1   
    63    32    33 1   
    64    32    59 1   
    65    32    60 1   
    66    33    61 1   
    67    33    62 1   
@<TRIPOS>SUBSTRUCTURE
     1 D4L         1 TEMP              0 ****  ****    0 ROOT
