@<TRIPOS>MOLECULE
D4N
   56    58     1     0     0
SMALL
No Charge or Current Charge


@<TRIPOS>ATOM
      1 O1          -4.9620     3.4410     0.4620 o          1 D4N      -0.623100
      2 C1          -2.7920     2.3640     0.6010 cx         1 D4N      -0.237000
      3 C2           2.5220     2.7750    -0.5970 c3         1 D4N       0.260000
      4 C3          -4.2800     2.4420     0.3020 c          1 D4N       0.633100
      5 C5           3.4800     1.5320    -0.4590 c3         1 D4N       0.189300
      6 C6          -1.8530     2.9410    -0.4460 cx         1 D4N      -0.096400
      7 C7           4.4600     1.4560    -1.6620 c3         1 D4N      -0.087100
      8 C8           2.6410     0.2370    -0.2950 ca         1 D4N      -0.081300
      9 C9           2.1250    -0.1270     0.9730 ca         1 D4N      -0.110000
     10 C10          1.3250    -1.2690     1.1330 ca         1 D4N      -0.019500
     11 C11          1.0030    -2.0710     0.0200 ca         1 D4N      -0.288500
     12 C12          1.5270    -1.7380    -1.2430 ca         1 D4N      -0.019500
     13 C13          2.3270    -0.5930    -1.3990 ca         1 D4N      -0.110000
     14 C14         -2.0640     3.6780     0.8510 cx         1 D4N      -0.096400
     15 C18         -1.8080    -1.7870    -1.0740 c6         1 D4N       0.202800
     16 F1           1.7330     2.9150     0.4960 f          1 D4N      -0.112000
     17 F3           3.2180     3.9280    -0.7430 f          1 D4N      -0.112000
     18 O6           4.3240     1.6960     0.6990 oh         1 D4N      -0.632000
     19 O15          0.1820    -4.4810    -0.8470 o          1 D4N      -0.531000
     20 O16         -0.0390    -3.8940     1.6290 o          1 D4N      -0.531000
     21 N17         -1.6600    -2.9000    -0.0870 n3         1 D4N      -0.748500
     22 C22         -2.5730    -2.7100     1.0820 c6         1 D4N       0.229500
     23 C68         -4.0620    -2.9250     0.6920 c3         1 D4N      -0.083100
     24 C21         -2.3610    -1.3020     1.7360 c6         1 D4N       0.133800
     25 C19         -1.6900    -0.3600    -0.4400 c6         1 D4N       0.127800
     26 N20         -2.5500    -0.1710     0.7730 n3         1 D4N      -0.720600
     27 C23         -2.3690     1.1480     1.4300 c3         1 D4N       0.192800
     28 N1          -4.8290     1.3150    -0.1790 nt         1 D4N      -0.604000
     29 H6          -0.8880     2.4620    -0.5960 hc         1 D4N       0.082700
     30 H6A         -2.2900     3.3660    -1.3470 hc         1 D4N       0.082700
     31 H7           5.1600     2.3000    -1.6490 hc         1 D4N       0.065367
     32 H7A          5.0510     0.5330    -1.6220 hc         1 D4N       0.065367
     33 H7B          3.9310     1.4880    -2.6200 hc         1 D4N       0.065367
     34 H9           2.3280     0.4810     1.8500 ha         1 D4N       0.124500
     35 H10          0.9440    -1.5140     2.1220 ha         1 D4N       0.140000
     36 H12          1.3000    -2.3510    -2.1140 ha         1 D4N       0.140000
     37 H13          2.6810    -0.3580    -2.3980 ha         1 D4N       0.124500
     38 H14         -2.6270     4.6080     0.8130 hc         1 D4N       0.082700
     39 H14A        -1.2420     3.6850     1.5640 hc         1 D4N       0.082700
     40 H18         -1.0920    -1.8850    -1.9020 h1         1 D4N       0.074200
     41 H18A        -2.7990    -1.8490    -1.5450 h1         1 D4N       0.074200
     42 HO6          3.7540     2.0060     1.4330 ho         1 D4N       0.461000
     43 H22         -2.3790    -3.4700     1.8520 h1         1 D4N       0.078700
     44 H68         -4.2020    -3.8990     0.2100 hc         1 D4N       0.046700
     45 H68A        -4.7020    -2.9020     1.5810 hc         1 D4N       0.046700
     46 H68B        -4.4290    -2.1540     0.0060 hc         1 D4N       0.046700
     47 H21         -3.0620    -1.2000     2.5770 h1         1 D4N       0.044200
     48 H21A        -1.3520    -1.2630     2.1660 h1         1 D4N       0.044200
     49 H19         -0.6440    -0.1470    -0.1940 h1         1 D4N       0.050200
     50 H19A        -1.9710     0.3640    -1.2180 h1         1 D4N       0.050200
     51 H23         -1.3150     1.2640     1.7210 h1         1 D4N       0.045700
     52 H23A        -2.9510     1.1720     2.3620 h1         1 D4N       0.045700
     53 HN1         -5.8160     1.2780    -0.3790 hn         1 D4N       0.325500
     54 HN1A        -4.2500     0.4840    -0.1980 hn         1 D4N       0.325500
     55 S14         -0.0800    -3.5020     0.2150 sy         1 D4N       1.170600
     56 F4           1.7080     2.6500    -1.6720 f          1 D4N      -0.112000
@<TRIPOS>BOND
     1     1     4 2   
     2     2     4 1   
     3     2     6 1   
     4     2    14 1   
     5     2    27 1   
     6     3     5 1   
     7     3    16 1   
     8     3    17 1   
     9     3    56 1   
    10     4    28 1   
    11     5     7 1   
    12     5     8 1   
    13     5    18 1   
    14     6    14 1   
    15     6    29 1   
    16     6    30 1   
    17     7    31 1   
    18     7    32 1   
    19     7    33 1   
    20     8     9 ar  
    21     8    13 ar  
    22     9    10 ar  
    23     9    34 1   
    24    10    11 ar  
    25    10    35 1   
    26    11    12 ar  
    27    11    55 1   
    28    12    13 ar  
    29    12    36 1   
    30    13    37 1   
    31    14    38 1   
    32    14    39 1   
    33    15    21 1   
    34    15    25 1   
    35    15    40 1   
    36    15    41 1   
    37    18    42 1   
    38    19    55 2   
    39    20    55 2   
    40    21    22 1   
    41    21    55 1   
    42    22    23 1   
    43    22    24 1   
    44    22    43 1   
    45    23    44 1   
    46    23    45 1   
    47    23    46 1   
    48    24    26 1   
    49    24    47 1   
    50    24    48 1   
    51    25    26 1   
    52    25    49 1   
    53    25    50 1   
    54    26    27 1   
    55    27    51 1   
    56    27    52 1   
    57    28    53 1   
    58    28    54 1   
@<TRIPOS>SUBSTRUCTURE
     1 D4N         1 TEMP              0 ****  ****    0 ROOT
