@<TRIPOS>MOLECULE
D4N
   56    58     1     0     0
SMALL
abcg2


@<TRIPOS>ATOM
      1 O1          -5.0970     3.2050    -0.6440 o          1 D4N      -0.623100
      2 C1          -2.9660     2.4100     0.0750 cx         1 D4N      -0.237000
      3 C2           2.5370     2.5090    -0.0360 c3         1 D4N       0.260000
      4 C3          -4.4520     2.2990    -0.1290 c          1 D4N       0.633100
      5 C5           3.4870     1.2970     0.0700 c3         1 D4N       0.189300
      6 C6          -2.2010     3.0250    -1.0760 cx         1 D4N      -0.096400
      7 C7           4.5700     1.3690    -1.0020 c3         1 D4N      -0.087100
      8 C8           2.6510     0.0260    -0.0670 ca         1 D4N      -0.081300
      9 C9           2.3680    -0.7620     1.0440 ca         1 D4N      -0.110000
     10 C10          1.5440    -1.8710     0.9410 ca         1 D4N      -0.019500
     11 C11          1.0000    -2.2020    -0.2910 ca         1 D4N      -0.288500
     12 C12          1.3280    -1.4740    -1.4260 ca         1 D4N      -0.019500
     13 C13          2.1480    -0.3660    -1.3070 ca         1 D4N      -0.110000
     14 C14         -2.4310     3.8170     0.1580 cx         1 D4N      -0.096400
     15 C18         -2.2130    -1.7470    -1.0990 c6         1 D4N       0.202800
     16 F1           1.6080     2.4740     0.9310 f          1 D4N      -0.112000
     17 F3           3.1920     3.6640     0.0930 f          1 D4N      -0.112000
     18 O6           4.1510     1.3800     1.3000 oh         1 D4N      -0.632000
     19 O15         -0.3070    -3.9200    -1.7560 o          1 D4N      -0.531000
     20 O16         -0.0560    -4.3830     0.7020 o          1 D4N      -0.531000
     21 N17         -1.6820    -2.6650    -0.0930 n3         1 D4N      -0.748500
     22 C22         -2.0770    -2.3330     1.2850 c6         1 D4N       0.229500
     23 C68         -3.5240    -2.7480     1.5210 c3         1 D4N      -0.083100
     24 C21         -1.8250    -0.8560     1.5700 c6         1 D4N       0.133800
     25 C19         -1.9720    -0.2900    -0.7460 c6         1 D4N       0.127800
     26 N20         -2.4580     0.0080     0.5900 n3         1 D4N      -0.720600
     27 C23         -2.2570     1.4020     0.9560 c3         1 D4N       0.192800
     28 N1          -5.0050     1.1530     0.2920 nt         1 D4N      -0.604000
     29 H6          -1.2060     2.6390    -1.2620 hc         1 D4N       0.082700
     30 H6A         -2.7560     3.2860    -1.9680 hc         1 D4N       0.082700
     31 H7           5.1940     2.2510    -0.8670 hc         1 D4N       0.065367
     32 H7A          5.2040     0.4870    -0.9230 hc         1 D4N       0.065367
     33 H7B          4.1620     1.3960    -2.0090 hc         1 D4N       0.065367
     34 H9           2.7750    -0.5320     2.0180 ha         1 D4N       0.124500
     35 H10          1.3200    -2.4520     1.8250 ha         1 D4N       0.140000
     36 H12          0.9420    -1.7480    -2.3980 ha         1 D4N       0.140000
     37 H13          2.3820     0.1860    -2.2060 ha         1 D4N       0.124500
     38 H14         -3.1460     4.6270     0.1260 hc         1 D4N       0.082700
     39 H14A        -1.5970     3.9790     0.8300 hc         1 D4N       0.082700
     40 H18         -1.7880    -1.9710    -2.0750 h1         1 D4N       0.074200
     41 H18A        -3.2860    -1.9310    -1.1850 h1         1 D4N       0.074200
     42 HO6          3.5310     1.4020     2.0380 ho         1 D4N       0.461000
     43 H22         -1.4570    -2.9100     1.9710 h1         1 D4N       0.078700
     44 H68         -3.6510    -3.8120     1.3260 hc         1 D4N       0.046700
     45 H68A        -3.7930    -2.5590     2.5610 hc         1 D4N       0.046700
     46 H68B        -4.2280    -2.2000     0.8950 hc         1 D4N       0.046700
     47 H21         -2.2230    -0.6210     2.5590 h1         1 D4N       0.044200
     48 H21A        -0.7400    -0.6680     1.6130 h1         1 D4N       0.044200
     49 H19         -0.9040    -0.0380    -0.8450 h1         1 D4N       0.050200
     50 H19A        -2.5080     0.3190    -1.4750 h1         1 D4N       0.050200
     51 H23         -1.1830     1.6520     0.9640 h1         1 D4N       0.045700
     52 H23A        -2.6060     1.5240     1.9860 h1         1 D4N       0.045700
     53 HN1         -5.9820     0.9810     0.1190 hn         1 D4N       0.325500
     54 HN1A        -4.4000     0.3740     0.5390 hn         1 D4N       0.325500
     55 S14         -0.2630    -3.4400    -0.3850 sy         1 D4N       1.170600
     56 F4           1.8860     2.5520    -1.2020 f          1 D4N      -0.112000
@<TRIPOS>BOND
     1     1     4 2   
     2     2     4 1   
     3     2     6 1   
     4     2    14 1   
     5     2    27 1   
     6     3     5 1   
     7     3    16 1   
     8     3    17 1   
     9     3    56 1   
    10     4    28 1   
    11     5     7 1   
    12     5     8 1   
    13     5    18 1   
    14     6    14 1   
    15     6    29 1   
    16     6    30 1   
    17     7    31 1   
    18     7    32 1   
    19     7    33 1   
    20     8     9 ar  
    21     8    13 ar  
    22     9    10 ar  
    23     9    34 1   
    24    10    11 ar  
    25    10    35 1   
    26    11    12 ar  
    27    11    55 1   
    28    12    13 ar  
    29    12    36 1   
    30    13    37 1   
    31    14    38 1   
    32    14    39 1   
    33    15    21 1   
    34    15    25 1   
    35    15    40 1   
    36    15    41 1   
    37    18    42 1   
    38    19    55 2   
    39    20    55 2   
    40    21    22 1   
    41    21    55 1   
    42    22    23 1   
    43    22    24 1   
    44    22    43 1   
    45    23    44 1   
    46    23    45 1   
    47    23    46 1   
    48    24    26 1   
    49    24    47 1   
    50    24    48 1   
    51    25    26 1   
    52    25    49 1   
    53    25    50 1   
    54    26    27 1   
    55    27    51 1   
    56    27    52 1   
    57    28    53 1   
    58    28    54 1   
@<TRIPOS>SUBSTRUCTURE
     1 D4N         1 TEMP              0 ****  ****    0 ROOT
