@<TRIPOS>MOLECULE
D4O
   43    45     1     0     0
SMALL
abcg2


@<TRIPOS>ATOM
      1 C15         -4.0750    -1.2110    -1.0200 c6         1 D4O      -0.070400
      2 C12         -4.3650     0.4200     1.4370 c6         1 D4O      -0.056700
      3 C13         -5.5700    -0.2290     0.7510 c6         1 D4O      -0.070400
      4 C16         -4.2240     1.9000     1.0870 c3         1 D4O      -0.087100
      5 C17         -3.0880    -0.3670     1.1210 c6         1 D4O      -0.066400
      6 C1           3.3380     1.2240    -0.0450 ca         1 D4O       0.247100
      7 C11         -2.8510    -0.5570    -0.3780 c6         1 D4O      -0.057700
      8 C14         -5.3520    -0.4250    -0.7460 c6         1 D4O      -0.071400
      9 C2           4.4620     0.5460     0.4060 ca         1 D4O      -0.279000
     10 C3           4.4450    -0.8390     0.5210 ca         1 D4O       0.218100
     11 C4           3.2930    -1.5580     0.2030 ca         1 D4O      -0.260000
     12 C5           2.1700    -0.8830    -0.2330 ca         1 D4O       0.036700
     13 C6           0.9140    -1.6260    -0.5700 c6         1 D4O      -0.081100
     14 C7          -0.2830    -0.7590    -0.2510 c6         1 D4O       0.194300
     15 C8           0.9800     1.1830    -0.9240 c          1 D4O       0.691700
     16 C9           2.1670     0.5120    -0.3770 ca         1 D4O      -0.267600
     17 O2           5.5620    -1.4320     0.9550 oh         1 D4O      -0.524100
     18 O3          -0.1610     0.4890    -0.9510 os         1 D4O      -0.450100
     19 O4           0.9630     2.3000    -1.3850 o          1 D4O      -0.486000
     20 H1          -3.9190    -1.3100    -2.0980 hc         1 D4O       0.035700
     21 H2          -4.1850    -2.2300    -0.6280 hc         1 D4O       0.035700
     22 H3          -4.5270     0.3600     2.5190 hc         1 D4O       0.040700
     23 H4          -5.7530    -1.2080     1.2090 hc         1 D4O       0.036700
     24 H5          -6.4690     0.3680     0.9300 hc         1 D4O       0.036700
     25 H6          -4.0330     2.0640     0.0260 hc         1 D4O       0.034033
     26 H7          -5.1300     2.4510     1.3460 hc         1 D4O       0.034033
     27 H8          -3.3940     2.3480     1.6370 hc         1 D4O       0.034033
     28 H9          -2.2360     0.1360     1.5880 hc         1 D4O       0.035200
     29 H10         -3.1560    -1.3570     1.5890 hc         1 D4O       0.035200
     30 H13         -2.7220     0.4280    -0.8420 hc         1 D4O       0.072700
     31 H14         -5.2970     0.5450    -1.2510 hc         1 D4O       0.039700
     32 H15         -6.2100    -0.9430    -1.1820 hc         1 D4O       0.039700
     33 H16          5.3590     1.0930     0.6720 ha         1 D4O       0.134000
     34 H17          3.2720    -2.6370     0.3060 ha         1 D4O       0.120000
     35 H18          0.9080    -1.8990    -1.6310 hc         1 D4O       0.070200
     36 H19          0.8590    -2.5550    -0.0010 hc         1 D4O       0.070200
     37 H20         -0.2860    -0.5460     0.8240 h1         1 D4O       0.053700
     38 H21          4.1950     2.9050     0.1460 ho         1 D4O       0.471000
     39 H22          5.4480    -2.3890     0.9920 ho         1 D4O       0.473000
     40 C10         -1.6000    -1.3860    -0.6670 c3         1 D4O      -0.068400
     41 O1           3.3460     2.5550    -0.1500 oh         1 D4O      -0.491100
     42 H11         -1.6800    -2.3490    -0.1520 hc         1 D4O       0.048700
     43 H12         -1.5510    -1.6140    -1.7370 hc         1 D4O       0.048700
@<TRIPOS>BOND
     1     1     7 1   
     2     1     8 1   
     3     1    20 1   
     4     1    21 1   
     5     2     3 1   
     6     2     4 1   
     7     2     5 1   
     8     2    22 1   
     9     3     8 1   
    10     3    23 1   
    11     3    24 1   
    12     4    25 1   
    13     4    26 1   
    14     4    27 1   
    15     5     7 1   
    16     5    28 1   
    17     5    29 1   
    18     6     9 ar  
    19     6    16 ar  
    20     6    41 1   
    21     7    30 1   
    22     7    40 1   
    23     8    31 1   
    24     8    32 1   
    25     9    10 ar  
    26     9    33 1   
    27    10    11 ar  
    28    10    17 1   
    29    11    12 ar  
    30    11    34 1   
    31    12    13 1   
    32    12    16 ar  
    33    13    14 1   
    34    13    35 1   
    35    13    36 1   
    36    14    18 1   
    37    14    37 1   
    38    14    40 1   
    39    15    16 1   
    40    15    18 1   
    41    15    19 2   
    42    17    39 1   
    43    38    41 1   
    44    40    42 1   
    45    40    43 1   
@<TRIPOS>SUBSTRUCTURE
     1 D4O         1 TEMP              0 ****  ****    0 ROOT
