@<TRIPOS>MOLECULE
D4O
   43    45     1     0     0
SMALL
No Charge or Current Charge


@<TRIPOS>ATOM
      1 C15         -4.1490    -1.2840    -0.9970 c6         1 D4O      -0.070400
      2 C12         -4.3940     0.4590     1.4420 c6         1 D4O      -0.056700
      3 C13         -5.6250    -0.2560     0.8180 c6         1 D4O      -0.070400
      4 C16         -4.3030     1.9570     1.0300 c3         1 D4O      -0.087100
      5 C17         -3.0910    -0.3270     1.1200 c6         1 D4O      -0.066400
      6 C1           3.4130     1.2420     0.0050 ca         1 D4O       0.247100
      7 C11         -2.8970    -0.5750    -0.4070 c6         1 D4O      -0.057700
      8 C14         -5.4510    -0.4990    -0.7020 c6         1 D4O      -0.071400
      9 C2           4.5370     0.5390     0.4620 ca         1 D4O      -0.279000
     10 C3           4.5100    -0.8540     0.5440 ca         1 D4O       0.218100
     11 C4           3.3580    -1.5550     0.1820 ca         1 D4O      -0.260000
     12 C5           2.2260    -0.8580    -0.2720 ca         1 D4O       0.036700
     13 C6           0.9620    -1.6130    -0.6360 c6         1 D4O      -0.081100
     14 C7          -0.2550    -0.7460    -0.2860 c6         1 D4O       0.194300
     15 C8           1.0180     1.2610    -0.9220 c          1 D4O       0.691700
     16 C9           2.2420     0.5480    -0.3750 ca         1 D4O      -0.267600
     17 O2           5.6070    -1.5220     0.9870 oh         1 D4O      -0.524100
     18 O3          -0.1510     0.5360    -0.9280 os         1 D4O      -0.450100
     19 O4           1.0400     2.3920    -1.3850 o          1 D4O      -0.486000
     20 H1          -4.0360    -1.4050    -2.0830 hc         1 D4O       0.035700
     21 H2          -4.2340    -2.2980    -0.5800 hc         1 D4O       0.035700
     22 H3          -4.5240     0.4640     2.5330 hc         1 D4O       0.040700
     23 H4          -5.7770    -1.2210     1.3220 hc         1 D4O       0.036700
     24 H5          -6.5360     0.3300     1.0010 hc         1 D4O       0.036700
     25 H6          -4.1750     2.0860    -0.0510 hc         1 D4O       0.034033
     26 H7          -5.2100     2.5000     1.3210 hc         1 D4O       0.034033
     27 H8          -3.4560     2.4490     1.5230 hc         1 D4O       0.034033
     28 H9          -2.2330     0.2210     1.5320 hc         1 D4O       0.035200
     29 H10         -3.1150    -1.2930     1.6450 hc         1 D4O       0.035200
     30 H13         -2.7830     0.3930    -0.9150 hc         1 D4O       0.072700
     31 H14         -5.4400     0.4580    -1.2410 hc         1 D4O       0.039700
     32 H15         -6.3140    -1.0580    -1.0870 hc         1 D4O       0.039700
     33 H16          5.4380     1.0680     0.7570 ha         1 D4O       0.134000
     34 H17          3.3320    -2.6400     0.2540 ha         1 D4O       0.120000
     35 H18          0.9670    -1.8540    -1.7080 hc         1 D4O       0.070200
     36 H19          0.9090    -2.5660    -0.0920 hc         1 D4O       0.070200
     37 H20         -0.2640    -0.5890     0.8030 h1         1 D4O       0.053700
     38 H21          4.3780     2.8660     0.2630 ho         1 D4O       0.471000
     39 H22          5.4020    -2.4800     0.9780 ho         1 D4O       0.473000
     40 C10         -1.6030    -1.3920    -0.7210 c3         1 D4O      -0.068400
     41 O1           3.4860     2.6000    -0.0390 oh         1 D4O      -0.491100
     42 H11         -1.6850    -2.3800    -0.2490 hc         1 D4O       0.048700
     43 H12         -1.5600    -1.5880    -1.8000 hc         1 D4O       0.048700
@<TRIPOS>BOND
     1     1     7 1   
     2     1     8 1   
     3     1    20 1   
     4     1    21 1   
     5     2     3 1   
     6     2     4 1   
     7     2     5 1   
     8     2    22 1   
     9     3     8 1   
    10     3    23 1   
    11     3    24 1   
    12     4    25 1   
    13     4    26 1   
    14     4    27 1   
    15     5     7 1   
    16     5    28 1   
    17     5    29 1   
    18     6     9 ar  
    19     6    16 ar  
    20     6    41 1   
    21     7    30 1   
    22     7    40 1   
    23     8    31 1   
    24     8    32 1   
    25     9    10 ar  
    26     9    33 1   
    27    10    11 ar  
    28    10    17 1   
    29    11    12 ar  
    30    11    34 1   
    31    12    13 1   
    32    12    16 ar  
    33    13    14 1   
    34    13    35 1   
    35    13    36 1   
    36    14    18 1   
    37    14    37 1   
    38    14    40 1   
    39    15    16 1   
    40    15    18 1   
    41    15    19 2   
    42    17    39 1   
    43    38    41 1   
    44    40    42 1   
    45    40    43 1   
@<TRIPOS>SUBSTRUCTURE
     1 D4O         1 TEMP              0 ****  ****    0 ROOT
