@<TRIPOS>MOLECULE
D4Q
   45    48     1     0     0
SMALL
bcc


@<TRIPOS>ATOM
      1 C1           4.4960     0.1090     0.0890 ca         1 D4Q      -0.141000
      2 C2           3.3070    -0.6220     0.0240 ca         1 D4Q       0.016200
      3 C3           3.3830    -2.0180    -0.0120 ca         1 D4Q      -0.165000
      4 C7           0.7750    -0.5360    -0.0760 cc         1 D4Q      -0.096200
      5 C8          -0.2830     0.4170    -0.1020 ca         1 D4Q      -0.275100
      6 C9           0.1770     1.7310    -0.0560 ca         1 D4Q       0.049900
      7 C10         -0.7170     2.8170    -0.0800 ca         1 D4Q      -0.323900
      8 C11         -2.0550     2.4730    -0.1520 ca         1 D4Q       0.506200
      9 C12         -1.6900     0.2060    -0.1750 ca         1 D4Q       0.758200
     10 C13         -3.6050    -1.3490    -0.3150 c6         1 D4Q       0.201500
     11 C14         -3.7890    -2.7330    -0.9280 c6         1 D4Q      -0.091400
     12 C15         -5.2670    -3.1100    -0.9520 c6         1 D4Q      -0.110400
     13 C16         -5.8830    -2.9720     0.4380 c6         1 D4Q       0.146800
     14 O            1.0360     4.3600     0.0170 o          1 D4Q      -0.626100
     15 C18         -0.1810     4.1910    -0.0330 c          1 D4Q       0.702700
     16 N3          -1.0450     5.2160    -0.0510 nt         1 D4Q      -0.667000
     17 S            1.8960     1.7860     0.0200 ss         1 D4Q       0.092500
     18 C6           2.0040     0.0420    -0.0120 cd         1 D4Q      -0.055600
     19 C4           4.6180    -2.6280     0.0180 ca         1 D4Q       0.136900
     20 F            4.6690    -3.9690    -0.0200 f          1 D4Q      -0.145900
     21 C5           5.8030    -1.9190     0.0830 ca         1 D4Q      -0.169000
     22 C            5.7240    -0.5360     0.1180 ca         1 D4Q      -0.097000
     23 N           -2.5340     1.2350    -0.1970 nb         1 D4Q      -0.786000
     24 C17         -4.2790    -1.2830     1.0630 c6         1 D4Q       0.135800
     25 N2          -5.6780    -1.6650     1.0440 n7         1 D4Q      -0.788200
     26 H1           4.4810     1.1910     0.1170 ha         1 D4Q       0.142000
     27 H2           2.4950    -2.6330    -0.0640 ha         1 D4Q       0.145000
     28 H3           0.6270    -1.6070    -0.1040 ha         1 D4Q       0.143000
     29 H4          -2.8200     3.2420    -0.1750 h4         1 D4Q       0.006100
     30 H5          -4.0810    -0.6110    -0.9670 h1         1 D4Q       0.077700
     31 H6          -3.3700    -2.7550    -1.9370 hc         1 D4Q       0.047200
     32 H7          -3.2370    -3.4700    -0.3340 hc         1 D4Q       0.047200
     33 H8          -5.8000    -2.4590    -1.6530 hc         1 D4Q       0.047700
     34 H9          -5.3890    -4.1320    -1.3170 hc         1 D4Q       0.047700
     35 H10         -6.9550    -3.1750     0.4020 h1         1 D4Q       0.054700
     36 H11         -5.4430    -3.7250     1.1020 h1         1 D4Q       0.054700
     37 H12         -2.0420     5.1040    -0.0740 hn         1 D4Q       0.315000
     38 H13         -0.6950     6.1590    -0.0160 hn         1 D4Q       0.315000
     39 H14          6.7560    -2.4320     0.1050 ha         1 D4Q       0.151000
     40 H15          6.6310     0.0500     0.1690 ha         1 D4Q       0.138000
     41 H16         -1.5540    -1.8090    -0.1760 hn         1 D4Q       0.441800
     42 H17         -3.7420    -1.9500     1.7470 h1         1 D4Q       0.063200
     43 H18         -4.1890    -0.2720     1.4650 h1         1 D4Q       0.063200
     44 H19         -6.2070    -0.9710     0.5280 hn         1 D4Q       0.353800
     45 N1          -2.1930    -1.0340    -0.2390 nu         1 D4Q      -0.861900
@<TRIPOS>BOND
     1     1     2 ar  
     2     1    22 ar  
     3     1    26 1   
     4     2     3 ar  
     5     2    18 1   
     6     3    19 ar  
     7     3    27 1   
     8     4     5 1   
     9     4    18 2   
    10     4    28 1   
    11     5     6 ar  
    12     5     9 ar  
    13     6     7 ar  
    14     6    17 1   
    15     7     8 ar  
    16     7    15 1   
    17     8    23 ar  
    18     8    29 1   
    19     9    23 ar  
    20     9    45 1   
    21    10    11 1   
    22    10    24 1   
    23    10    30 1   
    24    10    45 1   
    25    11    12 1   
    26    11    31 1   
    27    11    32 1   
    28    12    13 1   
    29    12    33 1   
    30    12    34 1   
    31    13    25 1   
    32    13    35 1   
    33    13    36 1   
    34    14    15 2   
    35    15    16 1   
    36    16    37 1   
    37    16    38 1   
    38    17    18 1   
    39    19    20 1   
    40    19    21 ar  
    41    21    22 ar  
    42    21    39 1   
    43    22    40 1   
    44    24    25 1   
    45    24    42 1   
    46    24    43 1   
    47    25    44 1   
    48    41    45 1   
@<TRIPOS>SUBSTRUCTURE
     1 D4Q         1 TEMP              0 ****  ****    0 ROOT
