@<TRIPOS>MOLECULE
D4Q
   45    48     1     0     0
SMALL
No Charge or Current Charge


@<TRIPOS>ATOM
      1 C1           4.5300     0.0100     0.2420 ca         1 D4Q      -0.123000
      2 C2           3.3050    -0.6730     0.0490 ca         1 D4Q       0.016200
      3 C3           3.3390    -2.0830    -0.0590 ca         1 D4Q      -0.147000
      4 C7           0.7600    -0.4800    -0.2230 cc         1 D4Q      -0.146200
      5 C8          -0.2830     0.5320    -0.2590 ca         1 D4Q      -0.209800
      6 C9           0.2040     1.8150    -0.1000 ca         1 D4Q      -0.077000
      7 C10         -0.7000     2.9050    -0.1120 ca         1 D4Q      -0.258600
      8 C11         -2.0650     2.5940    -0.2910 ca         1 D4Q       0.440900
      9 C12         -1.6650     0.3320    -0.4290 ca         1 D4Q       0.692900
     10 C13         -3.6330    -1.2900    -0.4660 c6         1 D4Q       0.201500
     11 C14         -3.8460    -2.7170    -1.0350 c6         1 D4Q      -0.091400
     12 C15         -5.3080    -3.1840    -0.8160 c6         1 D4Q      -0.110400
     13 C16         -5.7090    -3.0930     0.6770 c6         1 D4Q       0.146800
     14 O            0.8880     4.6800     0.2110 o          1 D4Q      -0.626100
     15 C18         -0.2710     4.3400     0.0530 c          1 D4Q       0.635700
     16 N3          -1.2170     5.3030     0.0240 nt         1 D4Q      -0.600000
     17 S            1.9760     1.8580     0.1020 ss         1 D4Q       0.219400
     18 C6           2.0220     0.0710    -0.0360 cd         1 D4Q      -0.055600
     19 C4           4.5550    -2.7790     0.0230 ca         1 D4Q       0.172000
     20 F            4.5650    -4.1250    -0.0830 f          1 D4Q      -0.181000
     21 C5           5.7590    -2.0900     0.2140 ca         1 D4Q      -0.151000
     22 C            5.7460    -0.6920     0.3240 ca         1 D4Q      -0.079000
     23 N           -2.5450     1.3390    -0.4460 nb         1 D4Q      -0.786000
     24 C17         -4.1100    -1.2350     1.0250 c6         1 D4Q       0.135800
     25 N2          -5.5140    -1.7180     1.1990 n7         1 D4Q      -0.843400
     26 H1           4.5600     1.0920     0.3320 ha         1 D4Q       0.124000
     27 H2           2.4330    -2.6580    -0.2070 ha         1 D4Q       0.127000
     28 H3           0.5820    -1.5450    -0.3280 ha         1 D4Q       0.193000
     29 H4          -2.8250     3.3740    -0.3130 h4         1 D4Q       0.006100
     30 H5          -4.2560    -0.6000    -1.0570 h1         1 D4Q       0.077700
     31 H6          -3.6050    -2.7350    -2.1070 hc         1 D4Q       0.047200
     32 H7          -3.1630    -3.4240    -0.5440 hc         1 D4Q       0.047200
     33 H8          -5.9900    -2.5690    -1.4210 hc         1 D4Q       0.047700
     34 H9          -5.4260    -4.2180    -1.1680 hc         1 D4Q       0.047700
     35 H10         -6.7620    -3.3900     0.7970 h1         1 D4Q       0.054700
     36 H11         -5.0990    -3.7990     1.2630 h1         1 D4Q       0.054700
     37 H12         -2.1880     5.0690    -0.1040 hn         1 D4Q       0.315000
     38 H13         -0.9330     6.2650     0.1340 hn         1 D4Q       0.315000
     39 H14          6.6960    -2.6380     0.2770 ha         1 D4Q       0.133000
     40 H15          6.6780    -0.1490     0.4730 ha         1 D4Q       0.120000
     41 H16         -1.5180    -1.6720    -0.6070 hn         1 D4Q       0.497000
     42 H17         -3.4370    -1.8510     1.6390 h1         1 D4Q       0.063200
     43 H18         -4.0310    -0.2020     1.3960 h1         1 D4Q       0.063200
     44 H19         -6.1410    -1.0870     0.6850 hn         1 D4Q       0.409000
     45 N1          -2.2060    -0.9280    -0.5950 nu         1 D4Q      -0.917100
@<TRIPOS>BOND
     1     1     2 ar  
     2     1    22 ar  
     3     1    26 1   
     4     2     3 ar  
     5     2    18 1   
     6     3    19 ar  
     7     3    27 1   
     8     4     5 1   
     9     4    18 2   
    10     4    28 1   
    11     5     6 ar  
    12     5     9 ar  
    13     6     7 ar  
    14     6    17 1   
    15     7     8 ar  
    16     7    15 1   
    17     8    23 ar  
    18     8    29 1   
    19     9    23 ar  
    20     9    45 1   
    21    10    11 1   
    22    10    24 1   
    23    10    30 1   
    24    10    45 1   
    25    11    12 1   
    26    11    31 1   
    27    11    32 1   
    28    12    13 1   
    29    12    33 1   
    30    12    34 1   
    31    13    25 1   
    32    13    35 1   
    33    13    36 1   
    34    14    15 2   
    35    15    16 1   
    36    16    37 1   
    37    16    38 1   
    38    17    18 1   
    39    19    20 1   
    40    19    21 ar  
    41    21    22 ar  
    42    21    39 1   
    43    22    40 1   
    44    24    25 1   
    45    24    42 1   
    46    24    43 1   
    47    25    44 1   
    48    41    45 1   
@<TRIPOS>SUBSTRUCTURE
     1 D4Q         1 TEMP              0 ****  ****    0 ROOT
