@<TRIPOS>MOLECULE
D4R
   44    48     1     0     0
SMALL
abcg2


@<TRIPOS>ATOM
      1 CAV        -11.1190    -8.7600     8.2620 c3         1 D4R       0.142900
      2 OAB        -12.3830    -9.1430     8.7670 os         1 D4R      -0.322100
      3 CAL        -12.4640    -9.4960    10.0590 c2         1 D4R       0.088900
      4 CAR        -11.4480    -9.5650    10.9340 ce         1 D4R      -0.291000
      5 CAO        -11.6510    -9.9310    12.3310 ce         1 D4R      -0.137000
      6 CAH        -12.8550   -10.2520    12.7990 c2         1 D4R      -0.104400
      7 CAI        -13.2530   -10.4360    14.2370 c6         1 D4R       0.236700
      8 CAN        -14.0710    -9.1980    14.7280 c6         1 D4R      -0.051100
      9 NAD        -13.9480   -11.7140    14.3620 n3         1 D4R      -0.720600
     10 CAU        -14.1570   -12.1230    15.7310 c3         1 D4R       0.158100
     11 CAQ        -15.1730   -11.7620    13.5870 c6         1 D4R       0.173800
     12 CAM        -14.8950   -11.4910    12.1190 c6         1 D4R      -0.051400
     13 CAE        -14.0600   -10.2200    11.9120 c5         1 D4R       0.013500
     14 CAF        -13.8610    -9.9190    10.4130 c5         1 D4R       0.214500
     15 OAA        -14.8140    -8.8750    10.0790 os         1 D4R      -0.300100
     16 CAJ        -15.1810    -8.2810    11.2420 ca         1 D4R       0.098100
     17 CAG        -14.7640    -8.9740    12.3500 ca         1 D4R      -0.135300
     18 CAK        -14.8350    -8.4880    13.6390 ca         1 D4R      -0.055300
     19 CAS        -15.5060    -7.2760    13.7880 ca         1 D4R      -0.105000
     20 CAT        -16.0260    -6.5990    12.6840 ca         1 D4R      -0.165000
     21 CAP        -15.8550    -7.0720    11.3780 ca         1 D4R       0.119100
     22 OAC        -16.2590    -6.4490    10.2530 os         1 D4R      -0.321100
     23 CAW        -16.9010    -5.1970    10.3830 c3         1 D4R       0.146900
     24 H1         -11.2610    -8.5140     7.2130 h1         1 D4R       0.041367
     25 H2         -10.7270    -7.8850     8.7850 h1         1 D4R       0.041367
     26 H3         -10.3900    -9.5710     8.3410 h1         1 D4R       0.041367
     27 H4         -10.4390    -9.3200    10.6300 ha         1 D4R       0.184000
     28 H5         -10.7970    -9.8780    12.9960 ha         1 D4R       0.180000
     29 H6         -12.3540   -10.4980    14.8550 h1         1 D4R       0.063700
     30 H7         -13.3700    -8.4850    15.1700 hc         1 D4R       0.052700
     31 H8         -14.7360    -9.4890    15.5470 hc         1 D4R       0.052700
     32 H10        -13.2130   -12.0960    16.2780 h1         1 D4R       0.029700
     33 H11        -14.8820   -11.5070    16.2830 h1         1 D4R       0.029700
     34 H12        -14.5240   -13.1510    15.7540 h1         1 D4R       0.029700
     35 H13        -15.9370   -11.0630    13.9670 h1         1 D4R       0.036200
     36 H14        -15.6050   -12.7600    13.6890 h1         1 D4R       0.036200
     37 H15        -15.8370   -11.4120    11.5710 hc         1 D4R       0.054200
     38 H16        -14.3410   -12.3320    11.6910 hc         1 D4R       0.054200
     39 H17        -14.1300   -10.7820     9.7950 h1         1 D4R       0.093700
     40 H18        -15.6100    -6.8240    14.7670 ha         1 D4R       0.112000
     41 H19        -16.5340    -5.6600    12.8560 ha         1 D4R       0.116000
     42 H20        -17.1310    -4.8600     9.3760 h1         1 D4R       0.039033
     43 H21        -17.8330    -5.2720    10.9500 h1         1 D4R       0.039033
     44 H22        -16.2560    -4.4560    10.8630 h1         1 D4R       0.039033
@<TRIPOS>BOND
     1     1     2 1   
     2     1    24 1   
     3     1    25 1   
     4     1    26 1   
     5     2     3 1   
     6     3     4 2   
     7     3    14 1   
     8     4     5 1   
     9     4    27 1   
    10     5     6 2   
    11     5    28 1   
    12     6     7 1   
    13     6    13 1   
    14     7     8 1   
    15     7     9 1   
    16     7    29 1   
    17     8    18 1   
    18     8    30 1   
    19     8    31 1   
    20     9    10 1   
    21     9    11 1   
    22    10    32 1   
    23    10    33 1   
    24    10    34 1   
    25    11    12 1   
    26    11    35 1   
    27    11    36 1   
    28    12    13 1   
    29    12    37 1   
    30    12    38 1   
    31    13    14 1   
    32    13    17 1   
    33    14    15 1   
    34    14    39 1   
    35    15    16 1   
    36    16    17 ar  
    37    16    21 ar  
    38    17    18 ar  
    39    18    19 ar  
    40    19    20 ar  
    41    19    40 1   
    42    20    21 ar  
    43    20    41 1   
    44    21    22 1   
    45    22    23 1   
    46    23    42 1   
    47    23    43 1   
    48    23    44 1   
@<TRIPOS>SUBSTRUCTURE
     1 D4R         1 TEMP              0 ****  ****    0 ROOT
