@<TRIPOS>MOLECULE
D4R
   44    48     1     0     0
SMALL
No Charge or Current Charge


@<TRIPOS>ATOM
      1 CAV        -11.0480    -8.6680     8.1640 c3         1 D4R       0.142900
      2 OAB        -12.3120    -9.1300     8.6710 os         1 D4R      -0.322100
      3 CAL        -12.4390    -9.4940     9.9920 c2         1 D4R       0.088900
      4 CAR        -11.4550    -9.5520    10.9220 ce         1 D4R      -0.291000
      5 CAO        -11.6650    -9.9460    12.3150 ce         1 D4R      -0.137000
      6 CAH        -12.8670   -10.2960    12.8140 c2         1 D4R      -0.104400
      7 CAI        -13.2260   -10.4800    14.2850 c6         1 D4R       0.236700
      8 CAN        -14.0580    -9.2200    14.7460 c6         1 D4R      -0.051100
      9 NAD        -13.9640   -11.7710    14.4570 n3         1 D4R      -0.720600
     10 CAU        -14.1610   -12.1800    15.8660 c3         1 D4R       0.158100
     11 CAQ        -15.2190   -11.8120    13.6520 c6         1 D4R       0.173800
     12 CAM        -14.9560   -11.5420    12.1460 c6         1 D4R      -0.051400
     13 CAE        -14.0730   -10.2850    11.8940 c5         1 D4R       0.013500
     14 CAF        -13.8650    -9.9560    10.3540 c5         1 D4R       0.214500
     15 OAA        -14.8160    -8.8750    10.0080 os         1 D4R      -0.300100
     16 CAJ        -15.1710    -8.3070    11.2080 ca         1 D4R       0.098100
     17 CAG        -14.7540    -9.0270    12.2970 ca         1 D4R      -0.135300
     18 CAK        -14.8250    -8.5150    13.6030 ca         1 D4R      -0.055300
     19 CAS        -15.4860    -7.2850    13.7920 ca         1 D4R      -0.105000
     20 CAT        -16.0150    -6.5790    12.6840 ca         1 D4R      -0.165000
     21 CAP        -15.8380    -7.0760    11.3650 ca         1 D4R       0.119100
     22 OAC        -16.2670    -6.3900    10.2430 os         1 D4R      -0.321100
     23 CAW        -16.9410    -5.1230    10.3330 c3         1 D4R       0.146900
     24 H1         -11.1370    -8.4080     7.1020 h1         1 D4R       0.041367
     25 H2         -10.7150    -7.7740     8.7070 h1         1 D4R       0.041367
     26 H3         -10.2810    -9.4460     8.2620 h1         1 D4R       0.041367
     27 H4         -10.4340    -9.2640    10.6680 ha         1 D4R       0.184000
     28 H5         -10.8020    -9.8740    12.9810 ha         1 D4R       0.180000
     29 H6         -12.2970   -10.5160    14.8750 h1         1 D4R       0.063700
     30 H7         -13.3530    -8.4930    15.1690 hc         1 D4R       0.052700
     31 H8         -14.7460    -9.4650    15.5640 hc         1 D4R       0.052700
     32 H10        -13.2090   -12.1590    16.4130 h1         1 D4R       0.029700
     33 H11        -14.8710   -11.5210    16.3830 h1         1 D4R       0.029700
     34 H12        -14.5560   -13.2030    15.9160 h1         1 D4R       0.029700
     35 H13        -15.9420   -11.0740    14.0280 h1         1 D4R       0.036200
     36 H14        -15.6990   -12.7970    13.7490 h1         1 D4R       0.036200
     37 H15        -15.9140   -11.4460    11.6170 hc         1 D4R       0.054200
     38 H16        -14.4520   -12.4180    11.7170 hc         1 D4R       0.054200
     39 H17        -14.1140   -10.8320     9.7420 h1         1 D4R       0.093700
     40 H18        -15.5620    -6.8580    14.7900 ha         1 D4R       0.112000
     41 H19        -16.5140    -5.6320    12.8640 ha         1 D4R       0.116000
     42 H20        -17.1950    -4.7560     9.3310 h1         1 D4R       0.039033
     43 H21        -17.8720    -5.2160    10.9080 h1         1 D4R       0.039033
     44 H22        -16.3010    -4.3740    10.8180 h1         1 D4R       0.039033
@<TRIPOS>BOND
     1     1     2 1   
     2     1    24 1   
     3     1    25 1   
     4     1    26 1   
     5     2     3 1   
     6     3     4 2   
     7     3    14 1   
     8     4     5 1   
     9     4    27 1   
    10     5     6 2   
    11     5    28 1   
    12     6     7 1   
    13     6    13 1   
    14     7     8 1   
    15     7     9 1   
    16     7    29 1   
    17     8    18 1   
    18     8    30 1   
    19     8    31 1   
    20     9    10 1   
    21     9    11 1   
    22    10    32 1   
    23    10    33 1   
    24    10    34 1   
    25    11    12 1   
    26    11    35 1   
    27    11    36 1   
    28    12    13 1   
    29    12    37 1   
    30    12    38 1   
    31    13    14 1   
    32    13    17 1   
    33    14    15 1   
    34    14    39 1   
    35    15    16 1   
    36    16    17 ar  
    37    16    21 ar  
    38    17    18 ar  
    39    18    19 ar  
    40    19    20 ar  
    41    19    40 1   
    42    20    21 ar  
    43    20    41 1   
    44    21    22 1   
    45    22    23 1   
    46    23    42 1   
    47    23    43 1   
    48    23    44 1   
@<TRIPOS>SUBSTRUCTURE
     1 D4R         1 TEMP              0 ****  ****    0 ROOT
