@<TRIPOS>MOLECULE
D4S
   44    47     1     0     0
SMALL
abcg2


@<TRIPOS>ATOM
      1 C4           5.1400    -2.9370    -0.1780 ca         1 D4S      -0.106000
      2 C14         -1.8630     0.0730     0.1650 c6         1 D4S       0.330600
      3 C5           3.7810    -3.0650     0.0720 ca         1 D4S      -0.097000
      4 C6           2.9720    -1.9420     0.1460 ca         1 D4S      -0.098000
      5 C7           3.5100    -0.6720    -0.0290 ca         1 D4S      -0.104000
      6 C9           0.9120     0.2400     0.1780 ce         1 D4S      -0.312600
      7 C10          0.2880     0.1970     1.3820 c2         1 D4S       0.235900
      8 C13         -1.1290    -0.2490     1.4620 c6         1 D4S      -0.083200
      9 C3           5.6920    -1.6770    -0.3480 ca         1 D4S      -0.092000
     10 C2           4.8770    -0.5590    -0.2730 ca         1 D4S       0.126000
     11 S8           2.5560     0.8210     0.0480 ss         1 D4S      -0.014600
     12 O11          0.8490     0.4840     2.5300 oh         1 D4S      -0.506100
     13 C15         -2.0600     1.5560    -0.0430 cc         1 D4S      -0.140300
     14 C16         -1.8410     2.5310     0.8810 cd         1 D4S      -0.239000
     15 S17         -2.2030     4.0860     0.2640 ss         1 D4S       0.216000
     16 C18         -2.6560     3.4390    -1.2570 cd         1 D4S      -0.245000
     17 C19         -2.5350     2.0870    -1.2800 cc         1 D4S      -0.095000
     18 C20         -3.1930    -0.6630     0.1590 ca         1 D4S      -0.048300
     19 C21         -3.3070    -1.9190    -0.4200 ca         1 D4S      -0.150000
     20 C22         -4.5090    -2.6350    -0.3540 ca         1 D4S       0.291000
     21 N23         -4.5960    -3.9010    -0.8860 nv         1 D4S      -1.079000
     22 C24         -5.5970    -2.0580     0.3100 ca         1 D4S      -0.172000
     23 C25         -5.4720    -0.8080     0.8910 ca         1 D4S      -0.073000
     24 C26         -4.2800    -0.1010     0.8230 ca         1 D4S      -0.143000
     25 O27         -1.1020    -0.4220    -0.9460 os         1 D4S      -0.446100
     26 C28          0.2140    -0.1710    -1.0340 c          1 D4S       0.700300
     27 O29          0.7570    -0.3390    -2.0970 o          1 D4S      -0.480000
     28 H1           5.7740    -3.8110    -0.2400 ha         1 D4S       0.119000
     29 H2           3.3420    -4.0440     0.2120 ha         1 D4S       0.117000
     30 H3           1.9160    -2.0590     0.3480 ha         1 D4S       0.119000
     31 H4          -1.6380     0.2030     2.3140 hc         1 D4S       0.094200
     32 H5          -1.1420    -1.3310     1.6340 hc         1 D4S       0.094200
     33 H6           6.7500    -1.5590    -0.5380 ha         1 D4S       0.129000
     34 H12          1.7790     0.7450     2.4020 ho         1 D4S       0.503000
     35 H7          -1.4960     2.4330     1.8990 h4         1 D4S       0.149000
     36 H8          -2.9900     4.0880    -2.0510 h4         1 D4S       0.154000
     37 H9          -2.7790     1.4850    -2.1450 ha         1 D4S       0.151000
     38 H10         -2.4660    -2.3700    -0.9310 ha         1 D4S       0.130000
     39 H11         -3.9370    -4.1200    -1.6160 hn         1 D4S       0.452500
     40 H13         -5.5230    -4.2300    -1.1010 hn         1 D4S       0.452500
     41 H14         -6.5390    -2.5920     0.3660 ha         1 D4S       0.114000
     42 H15         -6.3220    -0.3740     1.4030 ha         1 D4S       0.113000
     43 H16         -4.2060     0.8780     1.2780 ha         1 D4S       0.120000
     44 CL1          5.5750     1.0130    -0.4790 cl         1 D4S      -0.189000
@<TRIPOS>BOND
     1     1     3 ar  
     2     1     9 ar  
     3     1    28 1   
     4     2     8 1   
     5     2    13 1   
     6     2    18 1   
     7     2    25 1   
     8     3     4 ar  
     9     3    29 1   
    10     4     5 ar  
    11     4    30 1   
    12     5    10 ar  
    13     5    11 1   
    14     6     7 2   
    15     6    11 1   
    16     6    26 1   
    17     7     8 1   
    18     7    12 1   
    19     8    31 1   
    20     8    32 1   
    21     9    10 ar  
    22     9    33 1   
    23    10    44 1   
    24    12    34 1   
    25    13    14 2   
    26    13    17 1   
    27    14    15 1   
    28    14    35 1   
    29    15    16 1   
    30    16    17 2   
    31    16    36 1   
    32    17    37 1   
    33    18    19 ar  
    34    18    24 ar  
    35    19    20 ar  
    36    19    38 1   
    37    20    21 1   
    38    20    22 ar  
    39    21    39 1   
    40    21    40 1   
    41    22    23 ar  
    42    22    41 1   
    43    23    24 ar  
    44    23    42 1   
    45    24    43 1   
    46    25    26 1   
    47    26    27 2   
@<TRIPOS>SUBSTRUCTURE
     1 D4S         1 TEMP              0 ****  ****    0 ROOT
