@<TRIPOS>MOLECULE
D4S
   44    47     1     0     0
SMALL
No Charge or Current Charge


@<TRIPOS>ATOM
      1 C4           5.2310    -2.7930     0.5670 ca         1 D4S      -0.106000
      2 C14         -1.8430    -0.0170     0.0030 c6         1 D4S       0.330600
      3 C5           4.0220    -3.0610    -0.0980 ca         1 D4S      -0.097000
      4 C6           3.2160    -2.0020    -0.5500 ca         1 D4S      -0.098000
      5 C7           3.6140    -0.6670    -0.3390 ca         1 D4S      -0.104000
      6 C9           0.9300     0.1440    -0.4510 ce         1 D4S      -0.312600
      7 C10          0.5050     0.0420     0.8170 c2         1 D4S       0.235900
      8 C13         -0.8890    -0.4140     1.1480 c6         1 D4S      -0.083200
      9 C3           5.6340    -1.4630     0.7780 ca         1 D4S      -0.092000
     10 C2           4.8310    -0.4020     0.3260 ca         1 D4S       0.126000
     11 S8           2.5770     0.6720    -0.9210 ss         1 D4S      -0.014600
     12 O11          1.2690     0.3100     1.8830 oh         1 D4S      -0.506100
     13 C15         -2.0360     1.5000    -0.0790 cc         1 D4S      -0.140300
     14 C16         -1.6170     2.4470     0.8300 cd         1 D4S      -0.239000
     15 S17         -2.0640     4.0870     0.3260 ss         1 D4S       0.216000
     16 C18         -2.8320     3.4380    -1.1300 cd         1 D4S      -0.245000
     17 C19         -2.7250     2.0740    -1.1810 cc         1 D4S      -0.095000
     18 C20         -3.2080    -0.7200     0.2090 ca         1 D4S      -0.048300
     19 C21         -3.5590    -1.8900    -0.5070 ca         1 D4S      -0.150000
     20 C22         -4.7950    -2.5180    -0.2930 ca         1 D4S       0.291000
     21 N23         -5.1240    -3.6470    -0.9940 nv         1 D4S      -1.079000
     22 C24         -5.6960    -1.9930     0.6430 ca         1 D4S      -0.172000
     23 C25         -5.3610    -0.8390     1.3700 ca         1 D4S      -0.073000
     24 C26         -4.1240    -0.2100     1.1560 ca         1 D4S      -0.143000
     25 O27         -1.2760    -0.4560    -1.2500 os         1 D4S      -0.446100
     26 C28          0.0190    -0.1710    -1.6010 c          1 D4S       0.700300
     27 O29          0.3890    -0.2070    -2.7650 o          1 D4S      -0.480000
     28 H1           5.8540    -3.6130     0.9170 ha         1 D4S       0.119000
     29 H2           3.7100    -4.0900    -0.2640 ha         1 D4S       0.117000
     30 H3           2.2860    -2.2210    -1.0690 ha         1 D4S       0.119000
     31 H4          -1.2310     0.0010     2.1040 hc         1 D4S       0.094200
     32 H5          -0.8880    -1.5050     1.2650 hc         1 D4S       0.094200
     33 H6           6.5680    -1.2530     1.2920 ha         1 D4S       0.129000
     34 H12          2.1460     0.5690     1.5340 ho         1 D4S       0.503000
     35 H7          -1.0760     2.3100     1.7580 h4         1 D4S       0.149000
     36 H8          -3.3070     4.1040    -1.8410 h4         1 D4S       0.154000
     37 H9          -3.1300     1.4700    -1.9890 ha         1 D4S       0.151000
     38 H10         -2.8720    -2.3200    -1.2290 ha         1 D4S       0.130000
     39 H11         -4.5420    -3.9490    -1.7740 hn         1 D4S       0.452500
     40 H13         -6.0710    -4.0200    -0.9420 hn         1 D4S       0.452500
     41 H14         -6.6540    -2.4770     0.8130 ha         1 D4S       0.114000
     42 H15         -6.0590    -0.4340     2.1000 ha         1 D4S       0.113000
     43 H16         -3.8790     0.6800     1.7320 ha         1 D4S       0.120000
     44 Cl1          5.3590     1.2540     0.6190 cl         1 D4S      -0.189000
@<TRIPOS>BOND
     1     1     3 ar  
     2     1     9 ar  
     3     1    28 1   
     4     2     8 1   
     5     2    13 1   
     6     2    18 1   
     7     2    25 1   
     8     3     4 ar  
     9     3    29 1   
    10     4     5 ar  
    11     4    30 1   
    12     5    10 ar  
    13     5    11 1   
    14     6     7 2   
    15     6    11 1   
    16     6    26 1   
    17     7     8 1   
    18     7    12 1   
    19     8    31 1   
    20     8    32 1   
    21     9    10 ar  
    22     9    33 1   
    23    10    44 1   
    24    12    34 1   
    25    13    14 2   
    26    13    17 1   
    27    14    15 1   
    28    14    35 1   
    29    15    16 1   
    30    16    17 2   
    31    16    36 1   
    32    17    37 1   
    33    18    19 ar  
    34    18    24 ar  
    35    19    20 ar  
    36    19    38 1   
    37    20    21 1   
    38    20    22 ar  
    39    21    39 1   
    40    21    40 1   
    41    22    23 ar  
    42    22    41 1   
    43    23    24 ar  
    44    23    42 1   
    45    24    43 1   
    46    25    26 1   
    47    26    27 2   
@<TRIPOS>SUBSTRUCTURE
     1 D4S         1 TEMP              0 ****  ****    0 ROOT
