@<TRIPOS>MOLECULE
D4U
   40    42     1     0     0
SMALL
No Charge or Current Charge


@<TRIPOS>ATOM
      1 C10         -1.8940     1.1140     0.7150 c3         1 D4U      -0.069400
      2 C11         -3.1210     0.2500     0.2770 c6         1 D4U      -0.058700
      3 C1           3.3420    -1.0250    -0.1260 ca         1 D4U       0.273100
      4 C12         -4.5220    -0.6530    -1.6800 c6         1 D4U      -0.072900
      5 C13         -5.8130    -0.1220    -1.0120 c6         1 D4U      -0.074400
      6 C14         -5.6580    -0.0690     0.5270 c6         1 D4U      -0.072900
      7 C15         -4.4270     0.7770     0.9360 c6         1 D4U      -0.070900
      8 C17         -3.2870     0.1890    -1.2710 c6         1 D4U      -0.070900
      9 C2           4.4330    -0.2040    -0.4280 ca         1 D4U      -0.286000
     10 C3           4.3000     1.1860    -0.3670 ca         1 D4U       0.221100
     11 C4           3.0770     1.7570    -0.0030 ca         1 D4U      -0.200000
     12 C5           1.9770     0.9370     0.2940 ca         1 D4U       0.039700
     13 C6           0.6450     1.5480     0.6890 c6         1 D4U      -0.080100
     14 C7          -0.4990     0.6360     0.2170 c6         1 D4U       0.193300
     15 C8           0.9170    -1.3350     0.5780 c          1 D4U       0.703700
     16 C9           2.0990    -0.4650     0.2300 ca         1 D4U      -0.356600
     17 O2           5.3610     1.9870    -0.6560 oh         1 D4U      -0.524100
     18 O3          -0.2990    -0.7110     0.6810 os         1 D4U      -0.427100
     19 O4           1.0370    -2.5370     0.7710 o          1 D4U      -0.557000
     20 H1          -2.0510     2.1460     0.3780 hc         1 D4U       0.051200
     21 H2          -1.8710     1.1650     1.8100 hc         1 D4U       0.051200
     22 H3          -2.9400    -0.7690     0.6480 hc         1 D4U       0.068700
     23 H4          -4.3640    -1.7030    -1.3970 hc         1 D4U       0.040700
     24 H5          -4.6360    -0.6390    -2.7730 hc         1 D4U       0.040700
     25 H6          -6.0440     0.8810    -1.3960 hc         1 D4U       0.038200
     26 H7          -6.6630    -0.7640    -1.2800 hc         1 D4U       0.038200
     27 H8          -6.5670     0.3530     0.9780 hc         1 D4U       0.040700
     28 H9          -5.5560    -1.0880     0.9250 hc         1 D4U       0.040700
     29 H10         -4.3270     0.7660     2.0300 hc         1 D4U       0.036450
     30 H11         -4.5930     1.8260     0.6510 hc         1 D4U       0.036450
     31 H12         -3.3840     1.2060    -1.6770 hc         1 D4U       0.036450
     32 H13         -2.3940    -0.2490    -1.7350 hc         1 D4U       0.036450
     33 H14          5.3810    -0.6570    -0.7040 ha         1 D4U       0.136000
     34 H15          2.9840     2.8390     0.0470 ha         1 D4U       0.135000
     35 H16          0.6070     1.6760     1.7790 hc         1 D4U       0.073700
     36 H17          0.5320     2.5460     0.2450 hc         1 D4U       0.073700
     37 H18         -0.4930     0.6250    -0.8830 h1         1 D4U       0.058700
     38 H19          2.6730    -2.7680     0.1560 ho         1 D4U       0.520000
     39 H20          6.1210     1.4120    -0.8850 ho         1 D4U       0.475000
     40 O1           3.5140    -2.3700    -0.1790 oh         1 D4U      -0.537100
@<TRIPOS>BOND
     1     1     2 1   
     2     1    14 1   
     3     1    20 1   
     4     1    21 1   
     5     2     7 1   
     6     2     8 1   
     7     2    22 1   
     8     3     9 ar  
     9     3    16 ar  
    10     3    40 1   
    11     4     5 1   
    12     4     8 1   
    13     4    23 1   
    14     4    24 1   
    15     5     6 1   
    16     5    25 1   
    17     5    26 1   
    18     6     7 1   
    19     6    27 1   
    20     6    28 1   
    21     7    29 1   
    22     7    30 1   
    23     8    31 1   
    24     8    32 1   
    25     9    10 ar  
    26     9    33 1   
    27    10    11 ar  
    28    10    17 1   
    29    11    12 ar  
    30    11    34 1   
    31    12    13 1   
    32    12    16 ar  
    33    13    14 1   
    34    13    35 1   
    35    13    36 1   
    36    14    18 1   
    37    14    37 1   
    38    15    16 1   
    39    15    18 1   
    40    15    19 2   
    41    17    39 1   
    42    38    40 1   
@<TRIPOS>SUBSTRUCTURE
     1 D4U         1 TEMP              0 ****  ****    0 ROOT
