@<TRIPOS>MOLECULE
D4U
   40    42     1     0     0
SMALL
bcc


@<TRIPOS>ATOM
      1 C10         -1.8810     1.0740     0.7230 c3         1 D4U      -0.069400
      2 C11         -3.0700     0.2220     0.2800 c6         1 D4U      -0.058700
      3 C1           3.2640    -1.0280    -0.1050 ca         1 D4U       0.273100
      4 C12         -4.4550    -0.6420    -1.6540 c6         1 D4U      -0.072900
      5 C13         -5.7250    -0.0990    -1.0090 c6         1 D4U      -0.074400
      6 C14         -5.5820    -0.0440     0.5080 c6         1 D4U      -0.072900
      7 C15         -4.3530     0.7610     0.9170 c6         1 D4U      -0.070900
      8 C17         -3.2260     0.1640    -1.2410 c6         1 D4U      -0.070900
      9 C2           4.3500    -0.2200    -0.4220 ca         1 D4U      -0.304000
     10 C3           4.2160     1.1620    -0.3860 ca         1 D4U       0.221100
     11 C4           3.0000     1.7600    -0.0270 ca         1 D4U      -0.218000
     12 C5           1.9220     0.9620     0.2760 ca         1 D4U       0.039700
     13 C6           0.6030     1.5300     0.6990 c6         1 D4U      -0.080100
     14 C7          -0.5220     0.6360     0.2200 c6         1 D4U       0.170100
     15 C8           0.8840    -1.2780     0.5440 c          1 D4U       0.779200
     16 C9           2.0270    -0.4370     0.2250 ca         1 D4U      -0.356600
     17 O2           5.2300     1.9810    -0.6830 oh         1 D4U      -0.485100
     18 O3          -0.3060    -0.7170     0.6770 os         1 D4U      -0.403900
     19 O4           0.9680    -2.4880     0.7040 o          1 D4U      -0.632500
     20 H1          -2.0300     2.1030     0.3800 hc         1 D4U       0.051200
     21 H2          -1.8520     1.1180     1.8170 hc         1 D4U       0.051200
     22 H3          -2.9230    -0.8030     0.6440 hc         1 D4U       0.068700
     23 H4          -4.3170    -1.6870    -1.3550 hc         1 D4U       0.040700
     24 H5          -4.5500    -0.6420    -2.7430 hc         1 D4U       0.040700
     25 H6          -5.9250     0.9080    -1.3920 hc         1 D4U       0.038200
     26 H7          -6.5850    -0.7140    -1.2880 hc         1 D4U       0.038200
     27 H8          -6.4790     0.3860     0.9620 hc         1 D4U       0.040700
     28 H9          -5.4940    -1.0630     0.8990 hc         1 D4U       0.040700
     29 H10         -4.2510     0.7650     2.0060 hc         1 D4U       0.036450
     30 H11         -4.4870     1.8060     0.6140 hc         1 D4U       0.036450
     31 H12         -3.3140     1.1860    -1.6280 hc         1 D4U       0.036450
     32 H13         -2.3360    -0.2690    -1.7050 hc         1 D4U       0.036450
     33 H14          5.2950    -0.6800    -0.6890 ha         1 D4U       0.154000
     34 H15          2.9170     2.8390     0.0060 ha         1 D4U       0.153000
     35 H16          0.5720     1.6210     1.7900 hc         1 D4U       0.073700
     36 H17          0.4630     2.5330     0.2920 hc         1 D4U       0.073700
     37 H18         -0.5070     0.6170    -0.8750 h1         1 D4U       0.058700
     38 H19          2.6020    -2.7640     0.1800 ho         1 D4U       0.481000
     39 H20          6.0190     1.4800    -0.9220 ho         1 D4U       0.436000
     40 O1           3.4350    -2.3460    -0.1290 oh         1 D4U      -0.498100
@<TRIPOS>BOND
     1     1     2 1   
     2     1    14 1   
     3     1    20 1   
     4     1    21 1   
     5     2     7 1   
     6     2     8 1   
     7     2    22 1   
     8     3     9 ar  
     9     3    16 ar  
    10     3    40 1   
    11     4     5 1   
    12     4     8 1   
    13     4    23 1   
    14     4    24 1   
    15     5     6 1   
    16     5    25 1   
    17     5    26 1   
    18     6     7 1   
    19     6    27 1   
    20     6    28 1   
    21     7    29 1   
    22     7    30 1   
    23     8    31 1   
    24     8    32 1   
    25     9    10 ar  
    26     9    33 1   
    27    10    11 ar  
    28    10    17 1   
    29    11    12 ar  
    30    11    34 1   
    31    12    13 1   
    32    12    16 ar  
    33    13    14 1   
    34    13    35 1   
    35    13    36 1   
    36    14    18 1   
    37    14    37 1   
    38    15    16 1   
    39    15    18 1   
    40    15    19 2   
    41    17    39 1   
    42    38    40 1   
@<TRIPOS>SUBSTRUCTURE
     1 D4U         1 TEMP              0 ****  ****    0 ROOT
