@<TRIPOS>MOLECULE
D4V
   15    15     1     0     0
SMALL
abcg2


@<TRIPOS>ATOM
      1 C4           1.7870     0.6490    -0.0690 ca         1 D4V       0.375900
      2 C5          -0.4880     0.6230    -0.0610 ca         1 D4V       0.579300
      3 C3           1.8590    -0.7270    -0.0590 ca         1 D4V      -0.199000
      4 C2           0.6600    -1.4400    -0.0500 ca         1 D4V      -0.050000
      5 C1          -0.5540    -0.7800    -0.0510 ca         1 D4V      -0.143300
      6 O           -1.6440     1.2970    -0.0620 oh         1 D4V      -0.648300
      7 C           -1.8670    -1.4980    -0.0380 c3         1 D4V      -0.030800
      8 N            0.6310     1.3140    -0.0700 nb         1 D4V      -0.765000
      9 H5           2.6870     1.2520    -0.0760 h4         1 D4V       0.019100
     10 H4           2.8140    -1.2330    -0.0590 ha         1 D4V       0.127000
     11 H3           0.6730    -2.5230    -0.0420 ha         1 D4V       0.118000
     12 H1          -2.4590    -1.2400     0.8410 hc         1 D4V       0.045367
     13 H2          -2.4710    -1.2520    -0.9140 hc         1 D4V       0.045367
     14 H           -1.7140    -2.5760    -0.0320 hc         1 D4V       0.045367
     15 H7          -1.4510     2.2440    -0.0660 ho         1 D4V       0.483000
@<TRIPOS>BOND
     1     1     3 ar  
     2     1     8 ar  
     3     1     9 1   
     4     2     5 ar  
     5     2     6 1   
     6     2     8 ar  
     7     3     4 ar  
     8     3    10 1   
     9     4     5 ar  
    10     4    11 1   
    11     5     7 1   
    12     6    15 1   
    13     7    12 1   
    14     7    13 1   
    15     7    14 1   
@<TRIPOS>SUBSTRUCTURE
     1 D4V         1 TEMP              0 ****  ****    0 ROOT
