@<TRIPOS>MOLECULE
D4V
   15    15     1     0     0
SMALL
No Charge or Current Charge


@<TRIPOS>ATOM
      1 C4           1.7680     0.6840    -0.0690 ca         1 D4V       0.375900
      2 C5          -0.5250     0.6270    -0.0600 ca         1 D4V       0.579300
      3 C3           1.8430    -0.7190    -0.0590 ca         1 D4V      -0.199000
      4 C2           0.6590    -1.4740    -0.0490 ca         1 D4V      -0.050000
      5 C1          -0.5670    -0.7840    -0.0490 ca         1 D4V      -0.143300
      6 O           -1.6320     1.3810    -0.0610 oh         1 D4V      -0.648300
      7 C           -1.8890    -1.5440    -0.0380 c3         1 D4V      -0.030800
      8 N            0.5940     1.3560    -0.0700 nb         1 D4V      -0.765000
      9 H5           2.6750     1.2880    -0.0780 h4         1 D4V       0.019100
     10 H4           2.8130    -1.2090    -0.0600 ha         1 D4V       0.127000
     11 H3           0.6940    -2.5620    -0.0410 ha         1 D4V       0.118000
     12 H1          -2.4810    -1.2900     0.8490 hc         1 D4V       0.045367
     13 H2          -2.4900    -1.3010    -0.9230 hc         1 D4V       0.045367
     14 H           -1.7340    -2.6300    -0.0320 hc         1 D4V       0.045367
     15 H7          -1.2650     2.2870    -0.0690 ho         1 D4V       0.483000
@<TRIPOS>BOND
     1     1     3 ar  
     2     1     8 ar  
     3     1     9 1   
     4     2     5 ar  
     5     2     6 1   
     6     2     8 ar  
     7     3     4 ar  
     8     3    10 1   
     9     4     5 ar  
    10     4    11 1   
    11     5     7 1   
    12     6    15 1   
    13     7    12 1   
    14     7    13 1   
    15     7    14 1   
@<TRIPOS>SUBSTRUCTURE
     1 D4V         1 TEMP              0 ****  ****    0 ROOT
