@<TRIPOS>MOLECULE
D4W
   31    33     1     0     0
SMALL
bcc


@<TRIPOS>ATOM
      1 C1           0.2730     1.5020     0.0320 cc         1 D4W      -0.040300
      2 C3           1.3970     0.5970    -0.2160 ca         1 D4W      -0.144000
      3 N6          -1.8620     2.0490     0.4470 nc         1 D4W      -0.488800
      4 C7           1.3210    -0.3780    -1.2110 ca         1 D4W      -0.048000
      5 C8           2.5740     0.7050     0.5330 ca         1 D4W       0.184100
      6 C9          -1.1760     3.1520     0.2390 cd         1 D4W       0.305200
      7 C10         -0.8580    -0.9520     1.6640 ca         1 D4W      -0.104000
      8 C11         -2.2430    -0.9280    -0.2990 ca         1 D4W       0.039400
      9 C12          2.3700    -1.2410    -1.4610 ca         1 D4W      -0.209000
     10 C13          3.6400    -0.1560     0.2820 ca         1 D4W      -0.193000
     11 C14         -1.2280    -2.2650     1.9080 ca         1 D4W      -0.119000
     12 C15         -2.6330    -2.2340    -0.0470 ca         1 D4W      -0.120000
     13 C16          3.5340    -1.1250    -0.7030 ca         1 D4W       0.155100
     14 N2          -0.9780     1.0580     0.3230 na         1 D4W       0.174300
     15 C4           0.1730     2.8750    -0.0430 cd         1 D4W      -0.312300
     16 C5          -1.3650    -0.2780     0.5620 ca         1 D4W       0.009800
     17 C17         -2.1220    -2.9000     1.0570 ca         1 D4W      -0.110000
     18 O19          2.7280     1.5980     1.5260 oh         1 D4W      -0.493100
     19 O20          4.5720    -1.9890    -0.8880 oh         1 D4W      -0.520100
     20 H1           0.4190    -0.4470    -1.8060 ha         1 D4W       0.143000
     21 H2          -1.6650     4.1130     0.2780 h4         1 D4W       0.042100
     22 H3          -0.1780    -0.4370     2.3290 ha         1 D4W       0.150000
     23 H4           2.2890    -2.0010    -2.2270 ha         1 D4W       0.145000
     24 H5           4.5460    -0.0760     0.8700 ha         1 D4W       0.162000
     25 H6          -0.8220    -2.7880     2.7630 ha         1 D4W       0.144000
     26 H7          -3.3320    -2.7270    -0.7090 ha         1 D4W       0.152000
     27 H8           0.9650     3.5770    -0.2480 ha         1 D4W       0.167000
     28 H9          -2.4270    -3.9200     1.2490 ha         1 D4W       0.141000
     29 H10          1.9520     2.1690     1.6010 ho         1 D4W       0.441000
     30 H11          4.9920    -1.8230    -1.7390 ho         1 D4W       0.427000
     31 CL1         -2.8130    -0.1260    -1.7150 cl         1 D4W      -0.078400
@<TRIPOS>BOND
     1     1     2 1   
     2     1    14 1   
     3     1    15 2   
     4     2     4 ar  
     5     2     5 ar  
     6     3     6 2   
     7     3    14 1   
     8     4     9 ar  
     9     4    20 1   
    10     5    10 ar  
    11     5    18 1   
    12     6    15 1   
    13     6    21 1   
    14     7    11 ar  
    15     7    16 ar  
    16     7    22 1   
    17     8    12 ar  
    18     8    16 ar  
    19     8    31 1   
    20     9    13 ar  
    21     9    23 1   
    22    10    13 ar  
    23    10    24 1   
    24    11    17 ar  
    25    11    25 1   
    26    12    17 ar  
    27    12    26 1   
    28    13    19 1   
    29    14    16 1   
    30    15    27 1   
    31    17    28 1   
    32    18    29 1   
    33    19    30 1   
@<TRIPOS>SUBSTRUCTURE
     1 D4W         1 TEMP              0 ****  ****    0 ROOT
