@<TRIPOS>MOLECULE
D4W
   31    33     1     0     0
SMALL
No Charge or Current Charge


@<TRIPOS>ATOM
      1 C1           0.2780     1.4130     0.1450 cc         1 D4W      -0.091000
      2 C3           1.4670     0.6100    -0.1590 ca         1 D4W      -0.144000
      3 N6          -1.9220     2.0820     0.5440 nc         1 D4W      -0.488800
      4 C7           1.3670    -0.4560    -1.0760 ca         1 D4W      -0.030000
      5 C8           2.7140     0.8700     0.4520 ca         1 D4W       0.184100
      6 C9          -1.1310     3.1300     0.3700 cd         1 D4W       0.239900
      7 C10         -1.0230    -0.9650     1.7010 ca         1 D4W      -0.086000
      8 C11         -2.2790    -0.9390    -0.3880 ca         1 D4W       0.131000
      9 C12          2.4930    -1.2400    -1.3840 ca         1 D4W      -0.191000
     10 C13          3.8350     0.0860     0.1420 ca         1 D4W      -0.175000
     11 C14         -1.4170    -2.2960     1.9220 ca         1 D4W      -0.101000
     12 C15         -2.6690    -2.2710    -0.1630 ca         1 D4W      -0.102000
     13 C16          3.7260    -0.9660    -0.7760 ca         1 D4W       0.155100
     14 N2          -1.0430     1.0410     0.3430 na         1 D4W       0.225000
     15 C4           0.2190     2.7760     0.1130 cd         1 D4W      -0.229000
     16 C5          -1.4540    -0.2760     0.5490 ca         1 D4W       0.009800
     17 C17         -2.2410    -2.9490     0.9910 ca         1 D4W      -0.092000
     18 O19          2.8390     1.8610     1.3780 oh         1 D4W      -0.532100
     19 O20          4.8200    -1.7220    -1.0690 oh         1 D4W      -0.559100
     20 H1           0.4190    -0.6720    -1.5640 ha         1 D4W       0.125000
     21 H2          -1.5540     4.1250     0.4300 h4         1 D4W       0.042100
     22 H3          -0.3830    -0.4660     2.4250 ha         1 D4W       0.132000
     23 H4           2.3970    -2.0550    -2.0970 ha         1 D4W       0.127000
     24 H5           4.7880     0.2910     0.6200 ha         1 D4W       0.144000
     25 H6          -1.0820    -2.8210     2.8140 ha         1 D4W       0.126000
     26 H7          -3.3010    -2.7780    -0.8880 ha         1 D4W       0.134000
     27 H8           1.0310     3.4660    -0.0930 ha         1 D4W       0.149000
     28 H9          -2.5450    -3.9800     1.1610 ha         1 D4W       0.123000
     29 H10          1.9480     2.2490     1.5020 ho         1 D4W       0.480000
     30 H11          4.5580    -2.4050    -1.7240 ho         1 D4W       0.466000
     31 Cl1         -2.8130    -0.1410    -1.8700 cl         1 D4W      -0.170000
@<TRIPOS>BOND
     1     1     2 1   
     2     1    14 1   
     3     1    15 2   
     4     2     4 ar  
     5     2     5 ar  
     6     3     6 2   
     7     3    14 1   
     8     4     9 ar  
     9     4    20 1   
    10     5    10 ar  
    11     5    18 1   
    12     6    15 1   
    13     6    21 1   
    14     7    11 ar  
    15     7    16 ar  
    16     7    22 1   
    17     8    12 ar  
    18     8    16 ar  
    19     8    31 1   
    20     9    13 ar  
    21     9    23 1   
    22    10    13 ar  
    23    10    24 1   
    24    11    17 ar  
    25    11    25 1   
    26    12    17 ar  
    27    12    26 1   
    28    13    19 1   
    29    14    16 1   
    30    15    27 1   
    31    17    28 1   
    32    18    29 1   
    33    19    30 1   
@<TRIPOS>SUBSTRUCTURE
     1 D4W         1 TEMP              0 ****  ****    0 ROOT
