@<TRIPOS>MOLECULE
D4X
   44    46     1     0     0
SMALL
No Charge or Current Charge


@<TRIPOS>ATOM
      1 C1           3.1690    -1.0850     0.6930 ca         1 D4X       0.261100
      2 C10         -0.9780     1.0870    -0.2270 c3         1 D4X      -0.099400
      3 C11         -2.3520     0.4980     0.2280 c6         1 D4X      -0.060700
      4 C12         -4.7970    -0.0310    -0.4560 c6         1 D4X      -0.057700
      5 C13         -5.2930     0.7240     0.8090 c6         1 D4X      -0.070400
      6 C14         -4.2480     0.6980     1.9530 c6         1 D4X      -0.072400
      7 C15         -2.8850     1.2570     1.4760 c6         1 D4X      -0.070400
      8 C16         -4.7820    -1.5750    -0.2610 c3         1 D4X      -0.088100
      9 C17         -3.4170     0.5240    -0.9100 c6         1 D4X      -0.068400
     10 C2           4.2440    -0.2300     0.9570 ca         1 D4X      -0.223000
     11 C3           4.2940     1.0320     0.3610 ca         1 D4X       0.210100
     12 C4           3.2720     1.4420    -0.5040 ca         1 D4X      -0.268000
     13 C5           2.1850     0.5900    -0.7670 ca         1 D4X       0.043700
     14 C6           1.0910     1.0250    -1.7400 c6         1 D4X      -0.053100
     15 C7          -0.2720     0.3710    -1.4200 c6         1 D4X       0.126700
     16 C8           0.9620    -1.5910    -0.4450 c          1 D4X       0.593600
     17 C9           2.1250    -0.6830    -0.1610 ca         1 D4X      -0.316600
     18 N1          -0.0940    -1.0550    -1.1300 ns         1 D4X      -0.480900
     19 O1           3.1460    -2.3130     1.2730 oh         1 D4X      -0.548100
     20 O2           5.3430     1.8580     0.6160 oh         1 D4X      -0.524100
     21 O4           0.9510    -2.7620    -0.0970 o          1 D4X      -0.619000
     22 H1          -1.1150     2.1450    -0.4840 hc         1 D4X       0.052700
     23 H2          -0.2970     1.0850     0.6340 hc         1 D4X       0.052700
     24 H3          -2.1640    -0.5440     0.5210 hc         1 D4X       0.053700
     25 H4          -5.5180     0.1540    -1.2640 hc         1 D4X       0.043700
     26 H5          -5.5120     1.7680     0.5450 hc         1 D4X       0.039200
     27 H6          -6.2410     0.2930     1.1590 hc         1 D4X       0.039200
     28 H7          -4.6150     1.2920     2.8000 hc         1 D4X       0.041200
     29 H8          -4.1210    -0.3260     2.3290 hc         1 D4X       0.041200
     30 H9          -2.1570     1.1880     2.2970 hc         1 D4X       0.039200
     31 H10         -2.9910     2.3260     1.2450 hc         1 D4X       0.039200
     32 H11         -5.7800    -1.9470     0.0020 hc         1 D4X       0.033033
     33 H12         -4.4770    -2.0850    -1.1830 hc         1 D4X       0.033033
     34 H13         -4.0950    -1.8900     0.5320 hc         1 D4X       0.033033
     35 H14         -3.5440     1.5560    -1.2650 hc         1 D4X       0.033700
     36 H15         -3.0670    -0.0530    -1.7760 hc         1 D4X       0.033700
     37 H16          5.0410    -0.5500     1.6210 ha         1 D4X       0.149000
     38 H17          3.3170     2.4190    -0.9780 ha         1 D4X       0.116000
     39 H18          0.9940     2.1190    -1.7560 hc         1 D4X       0.066200
     40 H19          1.3960     0.7330    -2.7540 hc         1 D4X       0.066200
     41 H20         -0.9150     0.4660    -2.3070 h1         1 D4X       0.060700
     42 H21         -0.8560    -1.6890    -1.3300 hn         1 D4X       0.324500
     43 H22          2.3400    -2.7570     0.8990 ho         1 D4X       0.526000
     44 H23          5.2040     2.6860     0.1110 ho         1 D4X       0.469000
@<TRIPOS>BOND
     1     1    10 ar  
     2     1    17 ar  
     3     1    19 1   
     4     2     3 1   
     5     2    15 1   
     6     2    22 1   
     7     2    23 1   
     8     3     7 1   
     9     3     9 1   
    10     3    24 1   
    11     4     5 1   
    12     4     8 1   
    13     4     9 1   
    14     4    25 1   
    15     5     6 1   
    16     5    26 1   
    17     5    27 1   
    18     6     7 1   
    19     6    28 1   
    20     6    29 1   
    21     7    30 1   
    22     7    31 1   
    23     8    32 1   
    24     8    33 1   
    25     8    34 1   
    26     9    35 1   
    27     9    36 1   
    28    10    11 ar  
    29    10    37 1   
    30    11    12 ar  
    31    11    20 1   
    32    12    13 ar  
    33    12    38 1   
    34    13    14 1   
    35    13    17 ar  
    36    14    15 1   
    37    14    39 1   
    38    14    40 1   
    39    15    18 1   
    40    15    41 1   
    41    16    17 1   
    42    16    18 1   
    43    16    21 2   
    44    18    42 1   
    45    19    43 1   
    46    20    44 1   
@<TRIPOS>SUBSTRUCTURE
     1 D4X         1 TEMP              0 ****  ****    0 ROOT
