@<TRIPOS>MOLECULE
D4X
   44    46     1     0     0
SMALL
abcg2


@<TRIPOS>ATOM
      1 C1           2.9850    -1.0890     0.6920 ca         1 D4X       0.261100
      2 C10         -0.9630     1.1270    -0.2820 c3         1 D4X      -0.099400
      3 C11         -2.2790     0.5210     0.2010 c6         1 D4X      -0.060700
      4 C12         -4.6900    -0.0750    -0.4090 c6         1 D4X      -0.057700
      5 C13         -5.1670     0.6750     0.8380 c6         1 D4X      -0.070400
      6 C14         -4.1100     0.7050     1.9380 c6         1 D4X      -0.072400
      7 C15         -2.7960     1.2800     1.4230 c6         1 D4X      -0.070400
      8 C16         -4.6180    -1.5850    -0.1880 c3         1 D4X      -0.088100
      9 C17         -3.3530     0.4990    -0.8890 c6         1 D4X      -0.068400
     10 C2           4.0430    -0.2480     1.0160 ca         1 D4X      -0.223000
     11 C3           4.1170     1.0140     0.4410 ca         1 D4X       0.210100
     12 C4           3.1410     1.4500    -0.4630 ca         1 D4X      -0.268000
     13 C5           2.0880     0.6170    -0.7810 ca         1 D4X       0.043700
     14 C6           1.0570     1.0110    -1.7980 c6         1 D4X      -0.053100
     15 C7          -0.3040     0.4160    -1.4680 c6         1 D4X       0.126700
     16 C8           0.8620    -1.5370    -0.5210 c          1 D4X       0.593600
     17 C9           1.9860    -0.6520    -0.2000 ca         1 D4X      -0.316600
     18 N1          -0.1420    -1.0130    -1.2310 ns         1 D4X      -0.480900
     19 O1           2.9450    -2.3020     1.2420 oh         1 D4X      -0.548100
     20 O2           5.1580     1.7860     0.7820 oh         1 D4X      -0.524100
     21 O4           0.8500    -2.7260    -0.1530 o          1 D4X      -0.619000
     22 H1          -1.1300     2.1700    -0.5750 hc         1 D4X       0.052700
     23 H2          -0.2580     1.1530     0.5560 hc         1 D4X       0.052700
     24 H3          -2.0790    -0.5080     0.5230 hc         1 D4X       0.053700
     25 H4          -5.4240     0.0970    -1.2030 hc         1 D4X       0.043700
     26 H5          -5.4100     1.7050     0.5560 hc         1 D4X       0.039200
     27 H6          -6.0940     0.2300     1.2110 hc         1 D4X       0.039200
     28 H7          -4.4700     1.2960     2.7840 hc         1 D4X       0.041200
     29 H8          -3.9390    -0.3040     2.3250 hc         1 D4X       0.041200
     30 H9          -2.0400     1.2650     2.2140 hc         1 D4X       0.039200
     31 H10         -2.9420     2.3340     1.1540 hc         1 D4X       0.039200
     32 H11         -5.5910    -1.9840     0.1040 hc         1 D4X       0.033033
     33 H12         -4.3140    -2.0990    -1.1020 hc         1 D4X       0.033033
     34 H13         -3.9060    -1.8650     0.5900 hc         1 D4X       0.033033
     35 H14         -3.5110     1.5260    -1.2420 hc         1 D4X       0.033700
     36 H15         -3.0170    -0.0710    -1.7620 hc         1 D4X       0.033700
     37 H16          4.8100    -0.5820     1.7040 ha         1 D4X       0.149000
     38 H17          3.2130     2.4340    -0.9130 ha         1 D4X       0.116000
     39 H18          0.9810     2.0960    -1.8710 hc         1 D4X       0.066200
     40 H19          1.3810     0.6520    -2.7810 hc         1 D4X       0.066200
     41 H20         -0.9410     0.5120    -2.3470 h1         1 D4X       0.060700
     42 H21         -0.9240    -1.6210    -1.4220 hn         1 D4X       0.324500
     43 H22          2.1650    -2.7660     0.8420 ho         1 D4X       0.526000
     44 H23          5.1260     2.6260     0.3110 ho         1 D4X       0.469000
@<TRIPOS>BOND
     1     1    10 ar  
     2     1    17 ar  
     3     1    19 1   
     4     2     3 1   
     5     2    15 1   
     6     2    22 1   
     7     2    23 1   
     8     3     7 1   
     9     3     9 1   
    10     3    24 1   
    11     4     5 1   
    12     4     8 1   
    13     4     9 1   
    14     4    25 1   
    15     5     6 1   
    16     5    26 1   
    17     5    27 1   
    18     6     7 1   
    19     6    28 1   
    20     6    29 1   
    21     7    30 1   
    22     7    31 1   
    23     8    32 1   
    24     8    33 1   
    25     8    34 1   
    26     9    35 1   
    27     9    36 1   
    28    10    11 ar  
    29    10    37 1   
    30    11    12 ar  
    31    11    20 1   
    32    12    13 ar  
    33    12    38 1   
    34    13    14 1   
    35    13    17 ar  
    36    14    15 1   
    37    14    39 1   
    38    14    40 1   
    39    15    18 1   
    40    15    41 1   
    41    16    17 1   
    42    16    18 1   
    43    16    21 2   
    44    18    42 1   
    45    19    43 1   
    46    20    44 1   
@<TRIPOS>SUBSTRUCTURE
     1 D4X         1 TEMP              0 ****  ****    0 ROOT
