@<TRIPOS>MOLECULE
D4Y
   18    19     1     0     0
SMALL
abcg2


@<TRIPOS>ATOM
      1 C7          -0.0110    -0.3990     0.1350 ca         1 D4Y      -0.120300
      2 C4           2.2620     1.1440    -0.1460 ca         1 D4Y      -0.112000
      3 C5           2.3380    -0.2260     0.0080 ca         1 D4Y       0.137000
      4 C6           1.2150    -1.0280     0.1530 ca         1 D4Y      -0.075000
      5 C3           1.0180     1.7710    -0.1680 ca         1 D4Y      -0.121000
      6 C2          -0.1050     0.9800    -0.0320 ca         1 D4Y      -0.038000
      7 C1          -2.2750     0.2850     0.0540 c          1 D4Y       0.531000
      8 F            3.5510    -0.8090     0.0200 f          1 D4Y      -0.177000
      9 C           -1.3910    -0.9540     0.2990 c5         1 D4Y       0.143600
     10 O           -1.6540    -1.9990    -0.5880 oh         1 D4Y      -0.624000
     11 N           -1.4470     1.3560    -0.0450 ns         1 D4Y      -0.141000
     12 O1          -3.4840     0.2910    -0.0250 o          1 D4Y      -0.519000
     13 H4           3.1660     1.7290    -0.2550 ha         1 D4Y       0.135000
     14 H5           1.3070    -2.0990     0.2770 ha         1 D4Y       0.145000
     15 H3           0.9470     2.8430    -0.2950 ha         1 D4Y       0.128000
     16 H1          -1.5460    -1.2540     1.3460 h1         1 D4Y       0.070700
     17 H           -2.4910    -2.4050    -0.3420 ho         1 D4Y       0.462000
     18 H2          -1.7710     2.2940    -0.2320 hn         1 D4Y       0.175000
@<TRIPOS>BOND
     1     1     4 ar  
     2     1     6 ar  
     3     1     9 1   
     4     2     3 ar  
     5     2     5 ar  
     6     2    13 1   
     7     3     4 ar  
     8     3     8 1   
     9     4    14 1   
    10     5     6 ar  
    11     5    15 1   
    12     6    11 1   
    13     7     9 1   
    14     7    11 1   
    15     7    12 2   
    16     9    10 1   
    17     9    16 1   
    18    10    17 1   
    19    11    18 1   
@<TRIPOS>SUBSTRUCTURE
     1 D4Y         1 TEMP              0 ****  ****    0 ROOT
