@<TRIPOS>MOLECULE
D4Y
   18    19     1     0     0
SMALL
No Charge or Current Charge


@<TRIPOS>ATOM
      1 C7          -0.0080    -0.3920     0.1650 ca         1 D4Y      -0.120300
      2 C4           2.2940     1.1670    -0.1790 ca         1 D4Y      -0.112000
      3 C5           2.4000    -0.2260     0.0430 ca         1 D4Y       0.137000
      4 C6           1.2470    -1.0210     0.2180 ca         1 D4Y      -0.075000
      5 C3           1.0260     1.7840    -0.2290 ca         1 D4Y      -0.121000
      6 C2          -0.0980     0.9680    -0.0520 ca         1 D4Y      -0.038000
      7 C1          -2.3430     0.2720     0.1330 c          1 D4Y       0.531000
      8 F            3.6200    -0.8030     0.0880 f          1 D4Y      -0.177000
      9 C           -1.4020    -0.9940     0.3260 c5         1 D4Y       0.143600
     10 O           -1.6550    -2.0130    -0.6600 oh         1 D4Y      -0.624000
     11 N           -1.4460     1.3040    -0.0570 ns         1 D4Y      -0.141000
     12 O1          -3.5670     0.3590     0.1240 o          1 D4Y      -0.519000
     13 H4           3.1950     1.7610    -0.3120 ha         1 D4Y       0.135000
     14 H5           1.3310    -2.0910     0.3880 ha         1 D4Y       0.145000
     15 H3           0.9260     2.8540    -0.4000 ha         1 D4Y       0.128000
     16 H1          -1.5420    -1.3750     1.3470 h1         1 D4Y       0.070700
     17 H           -2.5940    -2.2890    -0.5560 ho         1 D4Y       0.462000
     18 H2          -1.7560     2.2530    -0.2230 hn         1 D4Y       0.175000
@<TRIPOS>BOND
     1     1     4 ar  
     2     1     6 ar  
     3     1     9 1   
     4     2     3 ar  
     5     2     5 ar  
     6     2    13 1   
     7     3     4 ar  
     8     3     8 1   
     9     4    14 1   
    10     5     6 ar  
    11     5    15 1   
    12     6    11 1   
    13     7     9 1   
    14     7    11 1   
    15     7    12 2   
    16     9    10 1   
    17     9    16 1   
    18    10    17 1   
    19    11    18 1   
@<TRIPOS>SUBSTRUCTURE
     1 D4Y         1 TEMP              0 ****  ****    0 ROOT
