@<TRIPOS>MOLECULE
D4Z
   47    50     1     0     0
SMALL
abcg2


@<TRIPOS>ATOM
      1 C2           1.2310    -3.7670    -0.1320 c          1 D4Z       0.640700
      2 C7          -1.4040    -0.3260     0.3620 ca         1 D4Z       0.415000
      3 C9          -3.6280     0.7760     0.4210 c6         1 D4Z       0.190500
      4 C11         -4.1790     2.0840     0.9810 c6         1 D4Z      -0.085400
      5 C12         -5.6960     2.1380     0.8310 c6         1 D4Z      -0.111400
      6 C13         -6.1060     1.8750    -0.6150 c6         1 D4Z       0.145800
      7 C15         -4.1160     0.5820    -1.0230 c6         1 D4Z       0.120800
      8 C16         -0.0060    -0.1790     0.2140 ca         1 D4Z      -0.190800
      9 C21          0.8170    -1.3110     0.0720 ca         1 D4Z       0.046800
     10 C22          3.3760     1.2600    -0.0510 ca         1 D4Z      -0.026800
     11 C24          4.5250     3.3680    -0.3560 ca         1 D4Z      -0.107500
     12 C27          4.6140     0.6440     0.1440 ca         1 D4Z      -0.101000
     13 N1           0.6960    -4.9960    -0.2390 nt         1 D4Z      -0.600000
     14 O3           2.4520    -3.5980    -0.1820 o          1 D4Z      -0.659100
     15 C4           0.3140    -2.6280     0.0530 ca         1 D4Z      -0.240600
     16 C5          -1.0630    -2.7330     0.2220 ca         1 D4Z       0.002000
     17 C6          -1.9030    -1.6350     0.3720 ca         1 D4Z      -0.260000
     18 N14         -5.5590     0.6440    -1.1650 n7         1 D4Z      -0.842400
     19 C17          0.8430     0.9640     0.1770 cc         1 D4Z      -0.219200
     20 C18          2.1270     0.5090     0.0190 cd         1 D4Z      -0.016300
     21 N19          2.0930    -0.8620    -0.0420 na         1 D4Z      -0.194700
     22 C23          3.3510     2.6350    -0.3060 ca         1 D4Z      -0.101000
     23 C25          5.7520     2.7440    -0.1630 ca         1 D4Z      -0.108000
     24 C26          5.7890     1.3790     0.0860 ca         1 D4Z      -0.107500
     25 H1          -4.0200    -0.0430     1.0350 h1         1 D4Z       0.061700
     26 H2          -3.8890     2.1960     2.0280 hc         1 D4Z       0.049200
     27 H3          -3.7310     2.9240     0.4350 hc         1 D4Z       0.049200
     28 H4          -6.1560     1.3870     1.4820 hc         1 D4Z       0.047700
     29 H5          -6.0720     3.1100     1.1580 hc         1 D4Z       0.047700
     30 H6          -7.1940     1.8440    -0.7060 h1         1 D4Z       0.055200
     31 H7          -5.7610     2.7050    -1.2420 h1         1 D4Z       0.055200
     32 H8          -3.6710     1.3690    -1.6430 h1         1 D4Z       0.061700
     33 H9          -3.7620    -0.3720    -1.4210 h1         1 D4Z       0.061700
     34 H10          4.4810     4.4310    -0.5540 ha         1 D4Z       0.113000
     35 H11          4.6790    -0.4150     0.3600 ha         1 D4Z       0.114000
     36 H12          1.3010    -5.7800    -0.4170 hn         1 D4Z       0.311500
     37 H13         -0.2910    -5.1610    -0.3140 hn         1 D4Z       0.311500
     38 H14         -1.5380    -3.7060     0.2480 ha         1 D4Z       0.097000
     39 H15         -2.9620    -1.8140     0.4940 ha         1 D4Z       0.112000
     40 H16         -1.7430     1.6600     0.3240 hn         1 D4Z       0.482000
     41 H17         -5.9760    -0.1480    -0.6900 hn         1 D4Z       0.405000
     42 H19          0.5540     1.9980     0.2870 ha         1 D4Z       0.196000
     43 H20          2.8720    -1.4850    -0.1850 hn         1 D4Z       0.382000
     44 H21          2.4060     3.1350    -0.4780 ha         1 D4Z       0.114000
     45 H22          6.6680     3.3170    -0.2090 ha         1 D4Z       0.114000
     46 H23          6.7370     0.8810     0.2430 ha         1 D4Z       0.113000
     47 N8          -2.1840     0.7740     0.5170 nu         1 D4Z      -0.946200
@<TRIPOS>BOND
     1     1    13 1   
     2     1    14 2   
     3     1    15 1   
     4     2     8 ar  
     5     2    17 ar  
     6     2    47 1   
     7     3     4 1   
     8     3     7 1   
     9     3    25 1   
    10     3    47 1   
    11     4     5 1   
    12     4    26 1   
    13     4    27 1   
    14     5     6 1   
    15     5    28 1   
    16     5    29 1   
    17     6    18 1   
    18     6    30 1   
    19     6    31 1   
    20     7    18 1   
    21     7    32 1   
    22     7    33 1   
    23     8     9 ar  
    24     8    19 1   
    25     9    15 ar  
    26     9    21 1   
    27    10    12 ar  
    28    10    20 1   
    29    10    22 ar  
    30    11    22 ar  
    31    11    23 ar  
    32    11    34 1   
    33    12    24 ar  
    34    12    35 1   
    35    13    36 1   
    36    13    37 1   
    37    15    16 ar  
    38    16    17 ar  
    39    16    38 1   
    40    17    39 1   
    41    18    41 1   
    42    19    20 2   
    43    19    42 1   
    44    20    21 1   
    45    21    43 1   
    46    22    44 1   
    47    23    24 ar  
    48    23    45 1   
    49    24    46 1   
    50    40    47 1   
@<TRIPOS>SUBSTRUCTURE
     1 D4Z         1 TEMP              0 ****  ****    0 ROOT
