@<TRIPOS>MOLECULE
D4Z
   47    50     1     0     0
SMALL
No Charge or Current Charge


@<TRIPOS>ATOM
      1 C2           1.2070    -3.9100    -0.1400 c          1 D4Z       0.640700
      2 C7          -1.4250    -0.5330     0.7310 ca         1 D4Z       0.415000
      3 C9          -3.6330     0.7010     0.5610 c6         1 D4Z       0.190500
      4 C11         -4.2100     2.0430     1.0790 c6         1 D4Z      -0.085400
      5 C12         -5.6460     2.2670     0.5380 c6         1 D4Z      -0.111400
      6 C13         -5.6850     2.1780    -1.0080 c6         1 D4Z       0.145800
      7 C15         -3.7510     0.6350    -1.0000 c6         1 D4Z       0.120800
      8 C16         -0.0610    -0.3640     0.4610 ca         1 D4Z      -0.190800
      9 C21          0.7600    -1.4220     0.1880 ca         1 D4Z       0.046800
     10 C22          3.2260     1.3010    -0.0960 ca         1 D4Z      -0.026800
     11 C24          4.2570     3.5240    -0.1200 ca         1 D4Z      -0.107500
     12 C27          4.4850     0.7430    -0.4160 ca         1 D4Z      -0.101000
     13 N1           0.6850    -5.1530    -0.1470 nt         1 D4Z      -0.600000
     14 O3           2.3960    -3.7740    -0.3790 o          1 D4Z      -0.659100
     15 C4           0.2850    -2.7500     0.1640 ca         1 D4Z      -0.240600
     16 C5          -1.0940    -2.9420     0.4410 ca         1 D4Z       0.002000
     17 C6          -1.9350    -1.8420     0.7220 ca         1 D4Z      -0.260000
     18 N14         -5.1430     0.8800    -1.4800 n7         1 D4Z      -0.842400
     19 C17          0.7460     0.8250     0.3950 cc         1 D4Z      -0.219200
     20 C18          2.0430     0.4300     0.0810 cd         1 D4Z      -0.016300
     21 N19          2.0510    -0.9790    -0.0470 na         1 D4Z      -0.194700
     22 C23          3.1280     2.7030     0.0500 ca         1 D4Z      -0.101000
     23 C25          5.5000     2.9550    -0.4380 ca         1 D4Z      -0.108000
     24 C26          5.6130     1.5650    -0.5860 ca         1 D4Z      -0.107500
     25 H1          -4.2410    -0.1130     0.9860 h1         1 D4Z       0.061700
     26 H2          -4.2200     2.0510     2.1770 hc         1 D4Z       0.049200
     27 H3          -3.5690     2.8760     0.7610 hc         1 D4Z       0.049200
     28 H4          -6.3280     1.5210     0.9700 hc         1 D4Z       0.047700
     29 H5          -6.0160     3.2500     0.8610 hc         1 D4Z       0.047700
     30 H6          -6.7210     2.2980    -1.3590 h1         1 D4Z       0.055200
     31 H7          -5.0940     3.0020    -1.4370 h1         1 D4Z       0.055200
     32 H8          -3.0780     1.3850    -1.4420 h1         1 D4Z       0.061700
     33 H9          -3.4110    -0.3510    -1.3510 h1         1 D4Z       0.061700
     34 H10          4.1670     4.6020    -0.0050 ha         1 D4Z       0.113000
     35 H11          4.6010    -0.3310    -0.5360 ha         1 D4Z       0.114000
     36 H12          1.2880    -5.9350    -0.3480 hn         1 D4Z       0.311500
     37 H13         -0.2930    -5.2940     0.0470 hn         1 D4Z       0.311500
     38 H14         -1.5330    -3.9360     0.4450 ha         1 D4Z       0.097000
     39 H15         -2.9840    -2.0190     0.9370 ha         1 D4Z       0.112000
     40 H16         -1.7030     1.4320     1.1110 hn         1 D4Z       0.482000
     41 H17         -5.7480     0.1300    -1.1220 hn         1 D4Z       0.405000
     42 H19          0.4150     1.8460     0.5530 ha         1 D4Z       0.196000
     43 H20          2.8430    -1.5720    -0.2700 hn         1 D4Z       0.382000
     44 H21          2.1800     3.1710     0.2950 ha         1 D4Z       0.114000
     45 H22          6.3730     3.5910    -0.5700 ha         1 D4Z       0.114000
     46 H23          6.5750     1.1210    -0.8320 ha         1 D4Z       0.113000
     47 N8          -2.2320     0.5690     1.0060 nu         1 D4Z      -0.946200
@<TRIPOS>BOND
     1     1    13 1   
     2     1    14 2   
     3     1    15 1   
     4     2     8 ar  
     5     2    17 ar  
     6     2    47 1   
     7     3     4 1   
     8     3     7 1   
     9     3    25 1   
    10     3    47 1   
    11     4     5 1   
    12     4    26 1   
    13     4    27 1   
    14     5     6 1   
    15     5    28 1   
    16     5    29 1   
    17     6    18 1   
    18     6    30 1   
    19     6    31 1   
    20     7    18 1   
    21     7    32 1   
    22     7    33 1   
    23     8     9 ar  
    24     8    19 1   
    25     9    15 ar  
    26     9    21 1   
    27    10    12 ar  
    28    10    20 1   
    29    10    22 ar  
    30    11    22 ar  
    31    11    23 ar  
    32    11    34 1   
    33    12    24 ar  
    34    12    35 1   
    35    13    36 1   
    36    13    37 1   
    37    15    16 ar  
    38    16    17 ar  
    39    16    38 1   
    40    17    39 1   
    41    18    41 1   
    42    19    20 2   
    43    19    42 1   
    44    20    21 1   
    45    21    43 1   
    46    22    44 1   
    47    23    24 ar  
    48    23    45 1   
    49    24    46 1   
    50    40    47 1   
@<TRIPOS>SUBSTRUCTURE
     1 D4Z         1 TEMP              0 ****  ****    0 ROOT
