@<TRIPOS>MOLECULE
D50
   59    60     1     0     0
SMALL
bcc


@<TRIPOS>ATOM
      1 C1           6.7600    -1.6730     3.1680 c3         1 D50      -0.083100
      2 N1           4.1860     0.0740     0.1120 ns         1 D50      -0.509900
      3 O1           4.5140     1.2300    -1.8080 o          1 D50      -0.626100
      4 C2           6.3670    -0.8990     1.9130 c3         1 D50      -0.062700
      5 N2           1.1860     1.2120    -1.7790 n8         1 D50      -0.854800
      6 O2           3.0070     3.2520    -1.0390 oh         1 D50      -0.617800
      7 C3           7.6090    -0.4070     1.1770 c3         1 D50      -0.083100
      8 O3          -4.6710    -0.0320     0.3980 os         1 D50      -0.321900
      9 C4           5.4810    -1.7720     1.0230 c3         1 D50      -0.071400
     10 C5           4.9460    -1.1030    -0.2430 c3         1 D50      -0.044300
     11 C7           2.8910     2.0840    -0.2760 c3         1 D50       0.066100
     12 C8           1.4860     1.4720    -0.3860 c3         1 D50       0.149500
     13 C9           0.4610     2.3640     0.3390 c3         1 D50      -0.069100
     14 C10         -0.9140     1.7640     0.3410 ca         1 D50      -0.105300
     15 C11         -1.2700     0.7920     1.2780 ca         1 D50      -0.090500
     16 C12         -2.5220     0.2070     1.2750 ca         1 D50      -0.187000
     17 C13         -3.4700     0.5800     0.3190 ca         1 D50       0.129100
     18 C14         -5.6740     0.3230    -0.5440 c3         1 D50       0.187700
     19 C15         -6.8960    -0.4780    -0.2140 ca         1 D50      -0.089300
     20 C16         -7.8840     0.0520     0.6110 ca         1 D50      -0.102000
     21 C17         -9.0000    -0.7010     0.9490 ca         1 D50      -0.135500
     22 C18         -9.1360    -1.9960     0.4670 ca         1 D50      -0.123000
     23 C19         -8.1540    -2.5330    -0.3570 ca         1 D50      -0.135500
     24 C20         -7.0400    -1.7760    -0.6940 ca         1 D50      -0.102000
     25 C21         -3.1320     1.5410    -0.6280 ca         1 D50      -0.187000
     26 C22         -1.8650     2.1160    -0.6070 ca         1 D50      -0.090500
     27 C23          4.1070    -2.1190    -1.0600 c          1 D50       0.924600
     28 H1           7.3510    -1.0540     3.8460 hc         1 D50       0.024033
     29 H1A          5.8820    -2.0200     3.7150 hc         1 D50       0.024033
     30 H1B          7.3590    -2.5510     2.9140 hc         1 D50       0.024033
     31 HN1          3.5840    -0.0040     0.9180 hn         1 D50       0.290500
     32 H2           5.7900    -0.0230     2.2280 hc         1 D50       0.034700
     33 HN2          0.3750     0.6120    -1.8510 hn         1 D50       0.337300
     34 HN2A         0.9430     2.0760    -2.2490 hn         1 D50       0.337300
     35 HO2          3.4740     2.9940    -1.8480 ho         1 D50       0.439000
     36 H3           8.1950    -1.2480     0.7960 hc         1 D50       0.024033
     37 H3A          7.3610     0.2330     0.3290 hc         1 D50       0.024033
     38 H3B          8.2530     0.1700     1.8430 hc         1 D50       0.024033
     39 H4           6.0430    -2.6590     0.7190 hc         1 D50       0.047200
     40 H4A          4.6320    -2.1380     1.6140 hc         1 D50       0.047200
     41 H5           5.7880    -0.7810    -0.8580 h1         1 D50       0.068700
     42 H7           3.0800     2.3310     0.7760 h1         1 D50       0.048700
     43 H8           1.5090     0.5040     0.1250 h1         1 D50       0.084700
     44 H9           0.7950     2.5250     1.3680 hc         1 D50       0.048700
     45 H9A          0.4360     3.3460    -0.1410 hc         1 D50       0.048700
     46 H11         -0.5530     0.4890     2.0330 ha         1 D50       0.130500
     47 H12         -2.7780    -0.5380     2.0190 ha         1 D50       0.134000
     48 H14         -5.8930     1.3950    -0.4850 h1         1 D50       0.039700
     49 H14A        -5.3320     0.1080    -1.5630 h1         1 D50       0.039700
     50 H16         -7.7810     1.0630     0.9880 ha         1 D50       0.134500
     51 H17         -9.7640    -0.2760     1.5880 ha         1 D50       0.128500
     52 H18        -10.0050    -2.5850     0.7310 ha         1 D50       0.126000
     53 H19         -8.2580    -3.5400    -0.7380 ha         1 D50       0.128500
     54 H20         -6.2790    -2.1990    -1.3390 ha         1 D50       0.134500
     55 H21         -3.8350     1.8620    -1.3850 ha         1 D50       0.134000
     56 H22         -1.6300     2.8710    -1.3470 ha         1 D50       0.130500
     57 O5           2.8740    -1.9730    -1.0660 o          1 D50      -0.826300
     58 O4           4.7690    -3.0190    -1.6170 o          1 D50      -0.826300
     59 C6           3.9400     1.0740    -0.7360 c          1 D50       0.651100
@<TRIPOS>BOND
     1     1     4 1   
     2     1    28 1   
     3     1    29 1   
     4     1    30 1   
     5     2    10 1   
     6     2    31 1   
     7     2    59 1   
     8     3    59 2   
     9     4     7 1   
    10     4     9 1   
    11     4    32 1   
    12     5    12 1   
    13     5    33 1   
    14     5    34 1   
    15     6    11 1   
    16     6    35 1   
    17     7    36 1   
    18     7    37 1   
    19     7    38 1   
    20     8    17 1   
    21     8    18 1   
    22     9    10 1   
    23     9    39 1   
    24     9    40 1   
    25    10    27 1   
    26    10    41 1   
    27    11    12 1   
    28    11    42 1   
    29    11    59 1   
    30    12    13 1   
    31    12    43 1   
    32    13    14 1   
    33    13    44 1   
    34    13    45 1   
    35    14    15 ar  
    36    14    26 ar  
    37    15    16 ar  
    38    15    46 1   
    39    16    17 ar  
    40    16    47 1   
    41    17    25 ar  
    42    18    19 1   
    43    18    48 1   
    44    18    49 1   
    45    19    20 ar  
    46    19    24 ar  
    47    20    21 ar  
    48    20    50 1   
    49    21    22 ar  
    50    21    51 1   
    51    22    23 ar  
    52    22    52 1   
    53    23    24 ar  
    54    23    53 1   
    55    24    54 1   
    56    25    26 ar  
    57    25    55 1   
    58    26    56 1   
    59    27    57 1   
    60    27    58 1   
@<TRIPOS>SUBSTRUCTURE
     1 D50         1 TEMP              0 ****  ****    0 ROOT
