@<TRIPOS>MOLECULE
D50
   59    60     1     0     0
SMALL
No Charge or Current Charge


@<TRIPOS>ATOM
      1 C1           8.6480     0.5510     0.6780 c3         1 D50      -0.083100
      2 N1           4.3810    -0.5310     1.5170 ns         1 D50      -0.442900
      3 O1           3.8330    -0.3560    -0.6950 o          1 D50      -0.626100
      4 C2           7.2990    -0.1290     0.3480 c3         1 D50      -0.062700
      5 N2           0.9080     1.5910    -0.8550 n8         1 D50      -0.965200
      6 O2           3.0260     2.4470     0.2890 oh         1 D50      -0.680000
      7 C3           7.3860    -0.8750    -1.0050 c3         1 D50      -0.083100
      8 O3          -5.1710    -0.1100    -0.1250 os         1 D50      -0.345100
      9 C4           6.8430    -1.0510     1.5140 c3         1 D50      -0.071400
     10 C5           5.3960    -1.6100     1.4140 c3         1 D50      -0.044300
     11 C7           2.6890     1.1660     0.8620 c3         1 D50       0.089300
     12 C8           1.2360     0.8400     0.3950 c3         1 D50       0.149500
     13 C9           0.1820     1.1650     1.4820 c3         1 D50      -0.069100
     14 C10         -1.2490     0.8450     1.0520 ca         1 D50      -0.105300
     15 C11         -1.6710    -0.4940     0.9390 ca         1 D50      -0.072500
     16 C12         -2.9860    -0.7900     0.5430 ca         1 D50      -0.169000
     17 C13         -3.8940     0.2430     0.2580 ca         1 D50       0.129100
     18 C14         -6.1750     0.8720    -0.4380 c3         1 D50       0.210900
     19 C15         -7.4590     0.1470    -0.8190 ca         1 D50      -0.089300
     20 C16         -8.4110    -0.1800     0.1670 ca         1 D50      -0.084000
     21 C17         -9.5970    -0.8480    -0.1860 ca         1 D50      -0.117500
     22 C18         -9.8380    -1.1930    -1.5270 ca         1 D50      -0.105000
     23 C19         -8.8910    -0.8710    -2.5140 ca         1 D50      -0.117500
     24 C20         -7.7050    -0.2040    -2.1620 ca         1 D50      -0.084000
     25 C21         -3.4750     1.5860     0.3730 ca         1 D50      -0.169000
     26 C22         -2.1590     1.8820     0.7700 ca         1 D50      -0.072500
     27 C23          5.1360    -2.6920     2.5070 c          1 D50       0.714000
     28 H1           8.9450     1.2350    -0.1260 hc         1 D50       0.024033
     29 H1A          8.5730     1.1330     1.6050 hc         1 D50       0.024033
     30 H1B          9.4410    -0.1960     0.8040 hc         1 D50       0.024033
     31 HN1          4.1800    -0.1640     2.4400 hn         1 D50       0.290500
     32 H2           6.5590     0.6740     0.2380 hc         1 D50       0.034700
     33 HN2          1.2000     1.0300    -1.6660 hn         1 D50       0.392500
     34 HN2A        -0.1150     1.6150    -0.9480 hn         1 D50       0.392500
     35 HO2          2.2810     2.5380    -0.3690 ho         1 D50       0.478000
     36 H3           8.0980    -1.7070    -0.9470 hc         1 D50       0.024033
     37 H3A          6.4120    -1.2790    -1.3030 hc         1 D50       0.024033
     38 H3B          7.7180    -0.1960    -1.7990 hc         1 D50       0.024033
     39 H4           7.5400    -1.8960     1.5820 hc         1 D50       0.047200
     40 H4A          6.9350    -0.5040     2.4600 hc         1 D50       0.047200
     41 H5           5.2760    -2.1180     0.4500 h1         1 D50       0.068700
     42 H7           2.7050     1.2310     1.9590 h1         1 D50       0.048700
     43 H8           1.1590    -0.2390     0.1870 h1         1 D50       0.084700
     44 H9           0.4220     0.5940     2.3870 hc         1 D50       0.048700
     45 H9A          0.2690     2.2220     1.7630 hc         1 D50       0.048700
     46 H11         -0.9800    -1.3050     1.1580 ha         1 D50       0.112500
     47 H12         -3.3050    -1.8250     0.4570 ha         1 D50       0.116000
     48 H14         -6.3650     1.5200     0.4280 h1         1 D50       0.039700
     49 H14A        -5.8500     1.5040    -1.2740 h1         1 D50       0.039700
     50 H16         -8.2300     0.0820     1.2070 ha         1 D50       0.116500
     51 H17        -10.3280    -1.0980     0.5790 ha         1 D50       0.110500
     52 H18        -10.7550    -1.7100    -1.8000 ha         1 D50       0.108000
     53 H19         -9.0760    -1.1390    -3.5520 ha         1 D50       0.110500
     54 H20         -6.9760     0.0400    -2.9320 ha         1 D50       0.116500
     55 H21         -4.1510     2.4090     0.1620 ha         1 D50       0.116000
     56 H22         -1.8460     2.9210     0.8550 ha         1 D50       0.112500
     57 O5           5.0120    -2.3300     3.6700 o          1 D50      -0.721000
     58 O4           4.9820    -3.8510     2.1460 o          1 D50      -0.721000
     59 C6           3.6860     0.0300     0.4600 c          1 D50       0.584100
@<TRIPOS>BOND
     1     1     4 1   
     2     1    28 1   
     3     1    29 1   
     4     1    30 1   
     5     2    10 1   
     6     2    31 1   
     7     2    59 1   
     8     3    59 2   
     9     4     7 1   
    10     4     9 1   
    11     4    32 1   
    12     5    12 1   
    13     5    33 1   
    14     5    34 1   
    15     6    11 1   
    16     6    35 1   
    17     7    36 1   
    18     7    37 1   
    19     7    38 1   
    20     8    17 1   
    21     8    18 1   
    22     9    10 1   
    23     9    39 1   
    24     9    40 1   
    25    10    27 1   
    26    10    41 1   
    27    11    12 1   
    28    11    42 1   
    29    11    59 1   
    30    12    13 1   
    31    12    43 1   
    32    13    14 1   
    33    13    44 1   
    34    13    45 1   
    35    14    15 ar  
    36    14    26 ar  
    37    15    16 ar  
    38    15    46 1   
    39    16    17 ar  
    40    16    47 1   
    41    17    25 ar  
    42    18    19 1   
    43    18    48 1   
    44    18    49 1   
    45    19    20 ar  
    46    19    24 ar  
    47    20    21 ar  
    48    20    50 1   
    49    21    22 ar  
    50    21    51 1   
    51    22    23 ar  
    52    22    52 1   
    53    23    24 ar  
    54    23    53 1   
    55    24    54 1   
    56    25    26 ar  
    57    25    55 1   
    58    26    56 1   
    59    27    57 1   
    60    27    58 1   
@<TRIPOS>SUBSTRUCTURE
     1 D50         1 TEMP              0 ****  ****    0 ROOT
