@<TRIPOS>MOLECULE
D51
  110   117     1     0     0
SMALL
No Charge or Current Charge


@<TRIPOS>ATOM
      1 P           -1.5800    -2.0830    -1.6360 p5         1 D51       1.458800
      2 N1           5.2650     2.6330     1.8590 ns         1 D51      -0.496900
      3 C2           5.6210     3.8770     2.2800 c          1 D51       0.620000
      4 O2           4.8410     4.8060     2.3150 o          1 D51      -0.568000
      5 N3           6.9250     3.9870     2.6880 ns         1 D51      -0.497500
      6 C4           7.9680     3.0810     2.5700 c          1 D51       0.571000
      7 O4           9.0150     3.2640     3.1740 o          1 D51      -0.512000
      8 N5           8.5710     0.7390     1.6260 nh         1 D51      -0.800400
      9 C6           8.9370    -1.5940     2.3110 ca         1 D51      -0.067000
     10 C7           8.0810    -3.3930     2.6080 ca         1 D51      -0.101300
     11 C8           6.7000    -3.3860     2.4160 ca         1 D51      -0.053300
     12 C9           6.0450    -2.1770     2.0720 ca         1 D51      -0.153000
     13 PA          -4.1600    -2.3030    -2.1010 p5         1 D51       1.452800
     14 C1           4.4930     0.0530     0.7060 c3         1 D51       0.168800
     15 C10          6.1430     1.5140     2.0530 c6         1 D51       0.406900
     16 N10          5.6910     0.1900     1.5950 nh         1 D51      -0.802400
     17 N1A        -13.9120     1.3530    -1.7870 nb         1 D51      -0.323000
     18 O1A         -3.8910    -2.4030    -3.5670 o          1 D51      -0.848000
     19 C1B         -8.6870     1.2670    -1.1510 c5         1 D51       0.314300
     20 O1P         -1.4390    -3.5690    -1.6730 o          1 D51      -0.850000
     21 C11          3.0770     0.1770     1.3740 c3         1 D51       0.109300
     22 O6           2.8970    -0.8100     2.4060 oh         1 D51      -0.705000
     23 C2A        -13.0380     2.3330    -1.4550 ca         1 D51       0.155900
     24 O2A         -4.5910    -3.6030    -1.5040 o          1 D51      -0.848000
     25 C2B         -8.4580     1.5780     0.3730 c5         1 D51       0.091300
     26 O2B         -7.6880     2.7690     0.6100 oh         1 D51      -0.709000
     27 O2P         -0.9980    -1.4190    -2.8400 o          1 D51      -0.850000
     28 C3           1.9220     0.0450     0.3200 c3         1 D51       0.097300
     29 O3           2.0530     1.1000    -0.6570 oh         1 D51      -0.654000
     30 N3A        -11.6970     2.2070    -1.3070 nb         1 D51      -0.209000
     31 C3B         -7.6350     0.3260     0.7850 c5         1 D51       0.082300
     32 O3B         -6.9470     0.5320     2.0320 oh         1 D51      -0.696000
     33 O3P         -3.0290    -1.5800    -1.2770 os         1 D51      -0.685800
     34 C12          0.4750     0.0620     0.9320 c3         1 D51       0.137300
     35 O7           0.3240    -1.0090     1.8860 oh         1 D51      -0.704000
     36 C4A        -11.1930     0.9740    -1.5150 ca         1 D51       0.100500
     37 C4B         -6.6820     0.2250    -0.4450 c5         1 D51       0.152300
     38 O4B         -7.5410     0.4900    -1.5840 os         1 D51      -0.402000
     39 C4X          7.5780     1.8890     1.5910 c5         1 D51       0.154200
     40 C5          -0.6470    -0.1230    -0.1330 c3         1 D51       0.202600
     41 O5          -0.8700    -1.5370    -0.2940 os         1 D51      -0.565400
     42 C5A        -11.9920    -0.0890    -1.8550 ca         1 D51      -0.088600
     43 C5B         -5.9560    -1.1380    -0.5910 c3         1 D51       0.231600
     44 O5B         -5.2930    -1.1860    -1.8600 os         1 D51      -0.560400
     45 C5X          8.0510    -0.5780     1.9360 ca         1 D51       0.241000
     46 C6A        -13.3810     0.1370    -1.9830 ca         1 D51       0.439900
     47 N6A        -14.2580    -0.8450    -2.3210 nv         1 D51      -1.078900
     48 N7A        -11.2660    -1.2620    -2.0340 nc         1 D51      -0.579100
     49 C8A        -10.0040    -0.8530    -1.7880 cd         1 D51       0.451700
     50 C9A          6.6200    -0.8810     1.8560 ca         1 D51       0.259000
     51 N9A         -9.9030     0.5130    -1.4560 na         1 D51      -0.298300
     52 NAA          9.9130    -0.0830    -0.1010 n8         1 D51      -1.018200
     53 CAB          5.5280     0.7980    -3.2130 ca         1 D51      -0.104000
     54 CAD          6.2280    -0.0740    -2.3670 ca         1 D51      -0.116000
     55 CAE          5.5650     2.1760    -2.9650 ca         1 D51      -0.116000
     56 CAH          6.9630     0.4310    -1.2810 ca         1 D51      -0.093500
     57 CAI          6.3020     2.6780    -1.8790 ca         1 D51      -0.093500
     58 CAL          9.3470     2.2900    -0.0500 c5         1 D51      -0.129400
     59 CAM          7.8100     2.4840     0.1460 c5         1 D51      -0.008400
     60 CAN         11.0790     1.2000     1.5570 c3         1 D51      -0.084100
     61 CAO          9.7540     1.0230     0.7780 c5         1 D51       0.479400
     62 CAP          7.0160     1.8200    -1.0100 ca         1 D51      -0.061300
     63 HN1          4.3140     2.4840     1.5640 hn         1 D51       0.348500
     64 HN3          7.1530     4.8500     3.1590 hn         1 D51       0.334500
     65 H6          10.0050    -1.4450     2.4270 ha         1 D51       0.117000
     66 H9           4.9680    -2.2470     1.9830 ha         1 D51       0.123000
     67 H1           4.5580     0.8130    -0.0840 h1         1 D51       0.067200
     68 H1'A         4.5370    -0.9090     0.1780 h1         1 D51       0.067200
     69 H10          6.2070     1.3940     3.1470 h2         1 D51       0.066700
     70 H1B         -8.7570     2.2000    -1.7250 h2         1 D51       0.107700
     71 H2           2.9940     1.1740     1.8250 h1         1 D51       0.056700
     72 HO2          1.9130    -0.9920     2.4040 ho         1 D51       0.520000
     73 H2A        -13.4560     3.3260    -1.2930 h5         1 D51       0.030100
     74 H2B         -9.4120     1.6260     0.9160 h1         1 D51       0.057700
     75 HO2B        -7.0960     2.5240     1.3640 ho         1 D51       0.519000
     76 H3           2.0510    -0.9230    -0.1860 h1         1 D51       0.059700
     77 HO3          1.8120     1.9510    -0.2300 ho         1 D51       0.442000
     78 H3B         -8.2810    -0.5630     0.8410 h1         1 D51       0.053700
     79 HO3B        -7.5100     0.1570     2.7530 ho         1 D51       0.496000
     80 H4           0.3230     1.0330     1.4250 h1         1 D51       0.081700
     81 HO4         -0.2530    -1.6520     1.3930 ho         1 D51       0.503000
     82 H4B         -5.9150     1.0120    -0.4030 h1         1 D51       0.093700
     83 H5          -1.5640     0.3590     0.2320 h1         1 D51       0.018700
     84 H5'A        -0.3700     0.3620    -1.0770 h1         1 D51       0.018700
     85 H5B         -5.2400    -1.2490     0.2340 h1         1 D51       0.018700
     86 H5BA        -6.6940    -1.9470    -0.5160 h1         1 D51       0.018700
     87 HN6A       -13.8560    -1.7080    -2.6810 hn         1 D51       0.499500
     88 HN6B       -15.1640    -0.5720    -2.6940 hn         1 D51       0.499500
     89 H7M          8.5480    -5.0290     3.9590 hc         1 D51       0.034367
     90 H7MA         8.8180    -5.4030     2.2440 hc         1 D51       0.034367
     91 H7MB         9.9530    -4.3600     3.1140 hc         1 D51       0.034367
     92 H8A         -9.1230    -1.4850    -1.8300 h5         1 D51       0.113800
     93 H8M          5.9520    -5.0250     3.6350 hc         1 D51       0.044367
     94 H8MA         4.8240    -4.5100     2.3750 hc         1 D51       0.044367
     95 H8MB         6.2480    -5.4610     1.9420 hc         1 D51       0.044367
     96 HNAA         9.5630    -0.8840     0.4170 hn         1 D51       0.405500
     97 HNAB         9.2160     0.0520    -0.8310 hn         1 D51       0.405500
     98 HAE          5.0240     2.8590    -3.6160 ha         1 D51       0.113000
     99 HAH          7.4500    -0.2840    -0.6370 ha         1 D51       0.107000
    100 HAI          6.3160     3.7530    -1.7150 ha         1 D51       0.107000
    101 HAL          9.6260     2.2220    -1.1080 hc         1 D51       0.052200
    102 HALA         9.8770     3.1700     0.3320 hc         1 D51       0.052200
    103 HAM          7.5920     3.5580     0.1390 hc         1 D51       0.059700
    104 HAN         11.9080     1.4060     0.8690 hc         1 D51       0.045700
    105 HANA        11.0300     2.0370     2.2580 hc         1 D51       0.045700
    106 HANB        11.3460     0.3080     2.1330 hc         1 D51       0.045700
    107 C7M          8.8930    -4.6160     3.0030 c3         1 D51      -0.034800
    108 HAB          4.9560     0.4070    -4.0510 ha         1 D51       0.115000
    109 C8M          5.8860    -4.6630     2.6010 c3         1 D51      -0.048800
    110 HAD          6.1940    -1.1460    -2.5460 ha         1 D51       0.113000
@<TRIPOS>BOND
     1     1    20 1   
     2     1    27 1   
     3     1    33 1   
     4     1    41 1   
     5     2     3 1   
     6     2    15 1   
     7     2    63 1   
     8     3     4 2   
     9     3     5 1   
    10     5     6 1   
    11     5    64 1   
    12     6     7 2   
    13     6    39 1   
    14     8    39 1   
    15     8    45 1   
    16     8    61 1   
    17     9    10 ar  
    18     9    45 ar  
    19     9    65 1   
    20    10    11 ar  
    21    10   107 1   
    22    11    12 ar  
    23    11   109 1   
    24    12    50 ar  
    25    12    66 1   
    26    13    18 1   
    27    13    24 1   
    28    13    33 1   
    29    13    44 1   
    30    14    16 1   
    31    14    21 1   
    32    14    67 1   
    33    14    68 1   
    34    15    16 1   
    35    15    39 1   
    36    15    69 1   
    37    16    50 1   
    38    17    23 ar  
    39    17    46 ar  
    40    19    25 1   
    41    19    38 1   
    42    19    51 1   
    43    19    70 1   
    44    21    22 1   
    45    21    28 1   
    46    21    71 1   
    47    22    72 1   
    48    23    30 ar  
    49    23    73 1   
    50    25    26 1   
    51    25    31 1   
    52    25    74 1   
    53    26    75 1   
    54    28    29 1   
    55    28    34 1   
    56    28    76 1   
    57    29    77 1   
    58    30    36 ar  
    59    31    32 1   
    60    31    37 1   
    61    31    78 1   
    62    32    79 1   
    63    34    35 1   
    64    34    40 1   
    65    34    80 1   
    66    35    81 1   
    67    36    42 ar  
    68    36    51 1   
    69    37    38 1   
    70    37    43 1   
    71    37    82 1   
    72    39    59 1   
    73    40    41 1   
    74    40    83 1   
    75    40    84 1   
    76    42    46 ar  
    77    42    48 1   
    78    43    44 1   
    79    43    85 1   
    80    43    86 1   
    81    45    50 ar  
    82    46    47 1   
    83    47    87 1   
    84    47    88 1   
    85    48    49 2   
    86    49    51 1   
    87    49    92 1   
    88    52    61 1   
    89    52    96 1   
    90    52    97 1   
    91    53    54 ar  
    92    53    55 ar  
    93    53   108 1   
    94    54    56 ar  
    95    54   110 1   
    96    55    57 ar  
    97    55    98 1   
    98    56    62 ar  
    99    56    99 1   
   100    57    62 ar  
   101    57   100 1   
   102    58    59 1   
   103    58    61 1   
   104    58   101 1   
   105    58   102 1   
   106    59    62 1   
   107    59   103 1   
   108    60    61 1   
   109    60   104 1   
   110    60   105 1   
   111    60   106 1   
   112    89   107 1   
   113    90   107 1   
   114    91   107 1   
   115    93   109 1   
   116    94   109 1   
   117    95   109 1   
@<TRIPOS>SUBSTRUCTURE
     1 D51         1 TEMP              0 ****  ****    0 ROOT
