@<TRIPOS>MOLECULE
D51
  110   117     1     0     0
SMALL
abcg2


@<TRIPOS>ATOM
      1 P           -2.2790    -2.8600    -0.4640 p5         1 D51       1.458800
      2 N1           5.3280     2.8950     0.5920 ns         1 D51      -0.496900
      3 C2           5.5130     4.1120     1.1490 c          1 D51       0.620000
      4 O2           4.8150     5.0810     0.9270 o          1 D51      -0.568000
      5 N3           6.5890     4.1880     2.0260 ns         1 D51      -0.497500
      6 C4           7.5760     3.2470     2.2080 c          1 D51       0.571000
      7 O4           8.4250     3.3870     3.0530 o          1 D51      -0.512000
      8 N5           8.2350     0.9290     1.6490 nh         1 D51      -0.800400
      9 C6           8.0790    -1.2920     2.6230 ca         1 D51      -0.067000
     10 C7           7.5130    -2.5600     2.7020 ca         1 D51      -0.101300
     11 C8           6.3610    -2.8280     1.9570 ca         1 D51      -0.053300
     12 C9           5.7920    -1.8090     1.2010 ca         1 D51      -0.153000
     13 PA          -4.8700    -3.1760     0.7900 p5         1 D51       1.452800
     14 C1           4.6650     0.3300    -0.4360 c3         1 D51       0.168800
     15 C10          5.9990     1.7510     1.1520 c6         1 D51       0.406900
     16 N10          5.8080     0.5280     0.4160 nh         1 D51      -0.802400
     17 N1A        -12.1820     2.8770    -2.8800 nb         1 D51      -0.323000
     18 O1A         -5.2040    -4.0630    -0.3680 o          1 D51      -0.848000
     19 C1B         -8.8210     1.0760     0.5020 c5         1 D51       0.314300
     20 O1P         -1.8650    -4.2400    -0.0630 o          1 D51      -0.850000
     21 C11          3.2740     0.3180     0.2740 c3         1 D51       0.109300
     22 O6           3.3710     0.2080     1.6690 oh         1 D51      -0.705000
     23 C2A        -11.9250     3.2030    -1.6150 ca         1 D51       0.155900
     24 O2A         -4.8430    -3.7220     2.1830 o          1 D51      -0.848000
     25 C2B         -9.8120     0.5360     1.5320 c5         1 D51       0.091300
     26 O2B         -9.5660     1.1930     2.7450 oh         1 D51      -0.709000
     27 O2P         -2.5680    -2.5370    -1.8960 o          1 D51      -0.850000
     28 C3           2.3630    -0.7240    -0.3950 c3         1 D51       0.097300
     29 O3           2.2280    -0.3800    -1.7560 oh         1 D51      -0.654000
     30 N3A        -11.0320     2.6760    -0.7960 nb         1 D51      -0.209000
     31 C3B         -9.3790    -0.9320     1.6080 c5         1 D51       0.082300
     32 O3B         -9.7050    -1.5570     2.8170 oh         1 D51      -0.696000
     33 O3P         -3.4950    -2.3310     0.5080 os         1 D51      -0.685800
     34 C12          1.0160    -0.9230     0.3240 c3         1 D51       0.137300
     35 O7           1.2050    -1.6480     1.5190 oh         1 D51      -0.704000
     36 C4A        -10.3390     1.7040    -1.3870 ca         1 D51       0.100500
     37 C4B         -7.8640    -0.8140     1.4680 c5         1 D51       0.152300
     38 O4B         -7.6570     0.3200     0.6250 os         1 D51      -0.402000
     39 C4X          7.4910     2.0790     1.2140 c5         1 D51       0.154200
     40 C5           0.0030    -1.6070    -0.5840 c3         1 D51       0.202600
     41 O5          -1.2040    -1.7640     0.1310 os         1 D51      -0.565400
     42 C5A        -10.4870     1.2560    -2.6900 ca         1 D51      -0.088600
     43 C5B         -7.2230    -2.0450     0.8760 c3         1 D51       0.231600
     44 O5B         -5.8350    -1.8380     0.7570 os         1 D51      -0.560400
     45 C5X          7.5510    -0.2870     1.8220 ca         1 D51       0.241000
     46 C6A        -11.4770     1.8980    -3.4580 ca         1 D51       0.439900
     47 N6A        -11.7330     1.5690    -4.7250 nv         1 D51      -1.078900
     48 N7A         -9.6000     0.2490    -2.9600 nc         1 D51      -0.579100
     49 C8A         -8.9370     0.0950    -1.8500 cd         1 D51       0.451700
     50 C9A          6.3560    -0.5360     1.1260 ca         1 D51       0.259000
     51 N9A         -9.3410     0.9420    -0.8560 na         1 D51      -0.298300
     52 NAA          9.9550    -0.3580     0.5730 n8         1 D51      -1.018200
     53 CAB          6.3350     1.5150    -3.8700 ca         1 D51      -0.104000
     54 CAD          7.0690     0.5650    -3.1720 ca         1 D51      -0.116000
     55 CAE          6.2150     2.7940    -3.3470 ca         1 D51      -0.116000
     56 CAH          7.6650     0.8900    -1.9630 ca         1 D51      -0.093500
     57 CAI          6.8140     3.1080    -2.1340 ca         1 D51      -0.093500
     58 CAL          9.6190     2.1190     0.1210 c5         1 D51      -0.129400
     59 CAM          8.1710     2.5810    -0.1020 c5         1 D51      -0.008400
     60 CAN         10.6560     1.1920     2.2350 c3         1 D51      -0.084100
     61 CAO          9.6250     0.9370     1.1350 c5         1 D51       0.479400
     62 CAP          7.5390     2.1620    -1.4110 ca         1 D51      -0.061300
     63 HN1          4.4610     2.7840     0.0890 hn         1 D51       0.348500
     64 HN3          6.6680     5.0510     2.5490 hn         1 D51       0.334500
     65 H6           8.9810    -1.0870     3.1840 ha         1 D51       0.117000
     66 H9           4.9020    -2.0440     0.6300 ha         1 D51       0.123000
     67 H1           4.6730     1.0880    -1.2210 h1         1 D51       0.067200
     68 H1'A         4.8340    -0.6060    -0.9730 h1         1 D51       0.067200
     69 H10          5.6450     1.6000     2.1880 h2         1 D51       0.066700
     70 H1B         -8.6090     2.1360     0.6660 h2         1 D51       0.107700
     71 H2           2.7960     1.2930     0.1100 h1         1 D51       0.056700
     72 HO2          3.5750    -0.6990     1.9170 ho         1 D51       0.520000
     73 H2A        -12.5320     4.0050    -1.2090 h5         1 D51       0.030100
     74 H2B        -10.8520     0.6560     1.2070 h1         1 D51       0.057700
     75 HO2B        -9.7620     0.5730     3.4590 ho         1 D51       0.519000
     76 H3           2.8730    -1.6980    -0.4000 h1         1 D51       0.059700
     77 HO3          1.8170     0.4900    -1.8180 ho         1 D51       0.442000
     78 H3B         -9.7940    -1.4760     0.7490 h1         1 D51       0.053700
     79 HO3B       -10.6100    -1.8810     2.7640 ho         1 D51       0.496000
     80 H4           0.6140     0.0530     0.6220 h1         1 D51       0.081700
     81 HO4          1.3270    -2.5780     1.2980 ho         1 D51       0.503000
     82 H4B         -7.4170    -0.6140     2.4500 h1         1 D51       0.093700
     83 H5          -0.1620    -1.0150    -1.4870 h1         1 D51       0.018700
     84 H5'A         0.4110    -2.5770    -0.9060 h1         1 D51       0.018700
     85 H5B         -7.4630    -2.8840     1.5410 h1         1 D51       0.018700
     86 H5BA        -7.6700    -2.2710    -0.1000 h1         1 D51       0.018700
     87 HN6A       -11.2180     0.8410    -5.1880 hn         1 D51       0.499500
     88 HN6B       -12.4460     2.0530    -5.2420 hn         1 D51       0.499500
     89 H7M          7.4830    -3.8980     4.4000 hc         1 D51       0.034367
     90 H7MA         8.3510    -4.5280     3.0150 hc         1 D51       0.034367
     91 H7MB         9.0750    -3.2640     4.0020 hc         1 D51       0.034367
     92 H8A         -8.1360    -0.6130    -1.7090 h5         1 D51       0.113800
     93 H8M          5.4350    -4.4770     3.0000 hc         1 D51       0.044367
     94 H8MA         4.8240    -4.2150     1.3700 hc         1 D51       0.044367
     95 H8MB         6.3990    -4.9580     1.6170 hc         1 D51       0.044367
     96 HNAA         9.3450    -0.6110    -0.1920 hn         1 D51       0.405500
     97 HNAB        10.8940    -0.3230     0.1970 hn         1 D51       0.405500
     98 HAE          5.6580     3.5520    -3.8810 ha         1 D51       0.113000
     99 HAH          8.2280     0.1230    -1.4530 ha         1 D51       0.107000
    100 HAI          6.7140     4.1140    -1.7450 ha         1 D51       0.107000
    101 HAL         10.1000     1.8210    -0.8110 hc         1 D51       0.052200
    102 HALA        10.2020     2.9520     0.5170 hc         1 D51       0.052200
    103 HAM          8.1570     3.6730    -0.1130 hc         1 D51       0.059700
    104 HAN         11.6580     1.2420     1.8030 hc         1 D51       0.045700
    105 HANA        10.4630     2.1310     2.7450 hc         1 D51       0.045700
    106 HANB        10.6470     0.3880     2.9700 hc         1 D51       0.045700
    107 C7M          8.1370    -3.6130     3.5720 c3         1 D51      -0.034800
    108 HAB          5.8710     1.2620    -4.8140 ha         1 D51       0.115000
    109 C8M          5.7210    -4.1860     1.9870 c3         1 D51      -0.048800
    110 HAD          7.1790    -0.4370    -3.5670 ha         1 D51       0.113000
@<TRIPOS>BOND
     1     1    20 1   
     2     1    27 1   
     3     1    33 1   
     4     1    41 1   
     5     2     3 1   
     6     2    15 1   
     7     2    63 1   
     8     3     4 2   
     9     3     5 1   
    10     5     6 1   
    11     5    64 1   
    12     6     7 2   
    13     6    39 1   
    14     8    39 1   
    15     8    45 1   
    16     8    61 1   
    17     9    10 ar  
    18     9    45 ar  
    19     9    65 1   
    20    10    11 ar  
    21    10   107 1   
    22    11    12 ar  
    23    11   109 1   
    24    12    50 ar  
    25    12    66 1   
    26    13    18 1   
    27    13    24 1   
    28    13    33 1   
    29    13    44 1   
    30    14    16 1   
    31    14    21 1   
    32    14    67 1   
    33    14    68 1   
    34    15    16 1   
    35    15    39 1   
    36    15    69 1   
    37    16    50 1   
    38    17    23 ar  
    39    17    46 ar  
    40    19    25 1   
    41    19    38 1   
    42    19    51 1   
    43    19    70 1   
    44    21    22 1   
    45    21    28 1   
    46    21    71 1   
    47    22    72 1   
    48    23    30 ar  
    49    23    73 1   
    50    25    26 1   
    51    25    31 1   
    52    25    74 1   
    53    26    75 1   
    54    28    29 1   
    55    28    34 1   
    56    28    76 1   
    57    29    77 1   
    58    30    36 ar  
    59    31    32 1   
    60    31    37 1   
    61    31    78 1   
    62    32    79 1   
    63    34    35 1   
    64    34    40 1   
    65    34    80 1   
    66    35    81 1   
    67    36    42 ar  
    68    36    51 1   
    69    37    38 1   
    70    37    43 1   
    71    37    82 1   
    72    39    59 1   
    73    40    41 1   
    74    40    83 1   
    75    40    84 1   
    76    42    46 ar  
    77    42    48 1   
    78    43    44 1   
    79    43    85 1   
    80    43    86 1   
    81    45    50 ar  
    82    46    47 1   
    83    47    87 1   
    84    47    88 1   
    85    48    49 2   
    86    49    51 1   
    87    49    92 1   
    88    52    61 1   
    89    52    96 1   
    90    52    97 1   
    91    53    54 ar  
    92    53    55 ar  
    93    53   108 1   
    94    54    56 ar  
    95    54   110 1   
    96    55    57 ar  
    97    55    98 1   
    98    56    62 ar  
    99    56    99 1   
   100    57    62 ar  
   101    57   100 1   
   102    58    59 1   
   103    58    61 1   
   104    58   101 1   
   105    58   102 1   
   106    59    62 1   
   107    59   103 1   
   108    60    61 1   
   109    60   104 1   
   110    60   105 1   
   111    60   106 1   
   112    89   107 1   
   113    90   107 1   
   114    91   107 1   
   115    93   109 1   
   116    94   109 1   
   117    95   109 1   
@<TRIPOS>SUBSTRUCTURE
     1 D51         1 TEMP              0 ****  ****    0 ROOT
