@<TRIPOS>MOLECULE
D52
  117   124     1     0     0
SMALL
abcg2


@<TRIPOS>ATOM
      1 P           -4.2560    -0.4380     1.0600 p5         1 D52       1.464800
      2 N1           4.5410    -2.2270    -2.7940 ne         1 D52      -0.757100
      3 C2           5.5600    -3.0830    -3.0970 c          1 D52       0.732400
      4 O2           5.3740    -4.2380    -3.4150 o          1 D52      -0.511000
      5 N3           6.8610    -2.5620    -3.1520 ns         1 D52      -0.517500
      6 C4           7.2520    -1.3760    -2.6010 c          1 D52       0.579000
      7 O4           8.3520    -0.9010    -2.7360 o          1 D52      -0.509000
      8 N5           6.4300     0.4990    -1.1730 nh         1 D52      -0.798400
      9 C6           6.2030     2.8130    -1.9310 ca         1 D52      -0.076000
     10 C7           5.4430     3.8650    -2.4250 ca         1 D52      -0.085300
     11 C8           4.1270     3.6160    -2.8260 ca         1 D52      -0.053300
     12 C9           3.6350     2.3190    -2.7610 ca         1 D52      -0.120000
     13 PA          -5.2450     1.3290     3.1910 p5         1 D52       1.479800
     14 C1           2.5190    -0.3490    -2.4750 c3         1 D52       0.170800
     15 C10          4.8290    -1.0550    -2.3230 c2         1 D52       0.709200
     16 N10          3.9360    -0.0620    -2.3070 nh         1 D52      -0.718400
     17 N1A         -8.1040    -2.7510    -2.7130 nb         1 D52      -0.328000
     18 O1A         -6.3200     0.4450     3.7500 o          1 D52      -0.849000
     19 C1B         -8.3490     1.5800    -0.0290 c5         1 D52       0.331300
     20 O1P         -4.1280    -1.4630     2.1430 o          1 D52      -0.850500
     21 C11          1.7980    -0.1060    -1.1440 c3         1 D52       0.120300
     22 O6           2.4430    -0.8070    -0.1040 oh         1 D52      -0.720000
     23 C2A         -8.3070    -1.4890    -3.0860 ca         1 D52       0.145900
     24 O2A         -3.9650     1.5490     3.9300 o          1 D52      -0.849000
     25 C2B         -9.5170     2.0580     0.8360 c5         1 D52       0.062300
     26 O2B        -10.7190     1.9040     0.1420 oh         1 D52      -0.707000
     27 O2P         -4.8990    -0.7630    -0.2510 o          1 D52      -0.850500
     28 C3           0.3110    -0.5000    -1.2370 c3         1 D52       0.094300
     29 O3          -0.2350    -0.2670    -2.5150 oh         1 D52      -0.650000
     30 N3A         -8.3550    -0.4080    -2.3280 nb         1 D52      -0.213000
     31 C3B         -9.1050     3.5060     1.1150 c5         1 D52       0.096300
     32 O3B         -9.3450     4.3230    -0.0020 oh         1 D52      -0.713000
     33 O3P         -4.9240     0.9350     1.6350 os         1 D52      -0.703800
     34 C12         -0.5590     0.1850    -0.1620 c3         1 D52       0.139300
     35 O7           0.0870     0.3470     1.0750 oh         1 D52      -0.686000
     36 C4A         -8.1640    -0.6960    -1.0420 ca         1 D52       0.146500
     37 C4B         -7.6000     3.3430     1.2950 c5         1 D52       0.139300
     38 O4B         -7.2250     2.2620     0.4430 os         1 D52      -0.383000
     39 C4X          6.1710    -0.8030    -1.6970 c6         1 D52       0.017200
     40 C5          -1.8810    -0.5530    -0.0240 c3         1 D52       0.207600
     41 O5          -2.7640     0.2140     0.7600 os         1 D52      -0.565400
     42 C5A         -7.9490    -1.9540    -0.5060 ca         1 D52      -0.038600
     43 C5B         -7.2400     3.0620     2.7460 c3         1 D52       0.226600
     44 O5B         -5.8610     2.8320     2.9180 os         1 D52      -0.579400
     45 C5X          5.6990     1.5240    -1.8060 ca         1 D52       0.215000
     46 C6A         -7.9220    -3.0210    -1.4150 ca         1 D52       0.432900
     47 N6A         -7.7440    -4.2950    -1.0340 nv         1 D52      -1.076900
     48 N7A         -7.7770    -1.8820     0.8510 nc         1 D52      -0.551100
     49 C7M          6.0330     5.2400    -2.5280 c3         1 D52      -0.041800
     50 C8A         -7.8780    -0.6160     1.1230 cd         1 D52       0.449700
     51 C8M          3.2620     4.7240    -3.3500 c3         1 D52      -0.048800
     52 C9A          4.4040     1.2720    -2.2650 ca         1 D52       0.251000
     53 N9A         -8.1370     0.1570     0.0220 na         1 D52      -0.278300
     54 NAA          5.2220     0.8970     0.9480 n8         1 D52      -1.032200
     55 CAB          8.8220    -4.2440     3.9930 ca         1 D52      -0.118000
     56 CAC          9.3350     3.8030     1.1590 ca         1 D52      -0.115000
     57 CAD          9.7080    -3.3970     3.3380 ca         1 D52      -0.112500
     58 CAE          7.4990    -3.8550     4.1560 ca         1 D52      -0.112500
     59 CAF          8.0900     3.8220     1.7650 ca         1 D52      -0.125500
     60 CAG          9.6520     2.7680     0.2840 ca         1 D52      -0.125500
     61 CAH          9.2710    -2.1740     2.8500 ca         1 D52      -0.106000
     62 CAI          7.0660    -2.6290     3.6650 ca         1 D52      -0.106000
     63 CAJ          7.1640     2.8170     1.5040 ca         1 D52      -0.088000
     64 CAK          8.7240     1.7760     0.0150 ca         1 D52      -0.088000
     65 CAM          7.0860    -0.6220     0.9690 c3         1 D52      -0.070400
     66 CAN          7.9450    -1.7720     3.0070 ca         1 D52      -0.079300
     67 CAO          7.4660     1.7930     0.6170 ca         1 D52      -0.077300
     68 CAP          6.4960     0.6520     0.3310 c3         1 D52       0.507700
     69 HN3          7.5580    -3.1220    -3.6260 hn         1 D52       0.329500
     70 H6           7.2210     3.0040    -1.6260 ha         1 D52       0.134000
     71 H9           2.6270     2.1440    -3.1120 ha         1 D52       0.129000
     72 H1           2.1080     0.2480    -3.2840 h1         1 D52       0.088200
     73 H1'A         2.4250    -1.3900    -2.7810 h1         1 D52       0.088200
     74 H1B         -8.5450     1.8130    -1.0810 h2         1 D52       0.095700
     75 H2           1.8820     0.9530    -0.8790 h1         1 D52       0.088700
     76 HO2          2.4030    -1.7520    -0.2910 ho         1 D52       0.504000
     77 H2A         -8.4470    -1.3340    -4.1510 h5         1 D52       0.012100
     78 H2B         -9.5230     1.5030     1.7820 h1         1 D52       0.069700
     79 HO2B       -11.4480     1.9550     0.7680 ho         1 D52       0.492000
     80 H3           0.2610    -1.5890    -1.1030 h1         1 D52       0.072700
     81 HO3         -0.3420     0.6810    -2.6460 ho         1 D52       0.441000
     82 H3B         -9.5880     3.9020     2.0190 h1         1 D52       0.037700
     83 HO3B       -10.2420     4.1470    -0.3110 ho         1 D52       0.498000
     84 H4          -0.7600     1.2060    -0.5130 h1         1 D52       0.073700
     85 HO4          0.4060    -0.5080     1.3790 ho         1 D52       0.493000
     86 H4B         -7.0700     4.2400     0.9620 h1         1 D52       0.085700
     87 H4X          6.1540    -1.5220    -0.8710 h1         1 D52       0.102700
     88 H5          -2.3000    -0.7420    -1.0180 h1         1 D52       0.017200
     89 H5'A        -1.6870    -1.5350     0.4330 h1         1 D52       0.017200
     90 H5B         -7.5100     3.9490     3.3290 h1         1 D52       0.012700
     91 H5BA        -7.8330     2.2320     3.1400 h1         1 D52       0.012700
     92 HN6A        -7.4480    -4.5000    -0.0960 hn         1 D52       0.486000
     93 HN6B        -7.5730    -4.9970    -1.7340 hn         1 D52       0.486000
     94 H7M          6.0190     5.6060    -3.5570 hc         1 D52       0.040367
     95 H7MA         5.4750     5.9640    -1.9310 hc         1 D52       0.040367
     96 H7MB         7.0660     5.2550    -2.1850 hc         1 D52       0.040367
     97 H8A         -7.7370    -0.1870     2.1060 h5         1 D52       0.121800
     98 H8M          3.6780     5.1620    -4.2600 hc         1 D52       0.045700
     99 H8MA         2.2580     4.3710    -3.5830 hc         1 D52       0.045700
    100 H8MB         3.1690     5.5350    -2.6260 hc         1 D52       0.045700
    101 HNAA         4.7760     1.7330     0.5910 hn         1 D52       0.434000
    102 HNAB         4.5830     0.1240     0.7990 hn         1 D52       0.434000
    103 HAE          6.8010    -4.5050     4.6690 ha         1 D52       0.108500
    104 HAF          7.8330     4.6200     2.4510 ha         1 D52       0.109000
    105 HAG         10.6220     2.7410    -0.1960 ha         1 D52       0.109000
    106 HAH          9.9700    -1.5180     2.3430 ha         1 D52       0.116000
    107 HAI          6.0320    -2.3340     3.8010 ha         1 D52       0.116000
    108 HAJ          6.2050     2.8360     2.0030 ha         1 D52       0.136500
    109 HAK          8.9630     0.9940    -0.6960 ha         1 D52       0.136500
    110 HAM          7.9640    -0.9420     0.4020 hc         1 D52       0.050700
    111 HAMA         6.3560    -1.4370     0.9220 hc         1 D52       0.050700
    112 HAB          9.1610    -5.1970     4.3780 ha         1 D52       0.105000
    113 CAL          7.4740    -0.4610     2.4410 c3         1 D52      -0.027100
    114 HAC         10.0570     4.5830     1.3650 ha         1 D52       0.104000
    115 HAD         10.7430    -3.6890     3.2100 ha         1 D52       0.108500
    116 HAL          8.2650     0.2830     2.5420 hc         1 D52       0.064700
    117 HALA         6.6140    -0.0930     3.0030 hc         1 D52       0.064700
@<TRIPOS>BOND
     1     1    20 1   
     2     1    27 1   
     3     1    33 1   
     4     1    41 1   
     5     2     3 1   
     6     2    15 2   
     7     3     4 2   
     8     3     5 1   
     9     5     6 1   
    10     5    69 1   
    11     6     7 2   
    12     6    39 1   
    13     8    39 1   
    14     8    45 1   
    15     8    68 1   
    16     9    10 ar  
    17     9    45 ar  
    18     9    70 1   
    19    10    11 ar  
    20    10    49 1   
    21    11    12 ar  
    22    11    51 1   
    23    12    52 ar  
    24    12    71 1   
    25    13    18 1   
    26    13    24 1   
    27    13    33 1   
    28    13    44 1   
    29    14    16 1   
    30    14    21 1   
    31    14    72 1   
    32    14    73 1   
    33    15    16 1   
    34    15    39 1   
    35    16    52 1   
    36    17    23 ar  
    37    17    46 ar  
    38    19    25 1   
    39    19    38 1   
    40    19    53 1   
    41    19    74 1   
    42    21    22 1   
    43    21    28 1   
    44    21    75 1   
    45    22    76 1   
    46    23    30 ar  
    47    23    77 1   
    48    25    26 1   
    49    25    31 1   
    50    25    78 1   
    51    26    79 1   
    52    28    29 1   
    53    28    34 1   
    54    28    80 1   
    55    29    81 1   
    56    30    36 ar  
    57    31    32 1   
    58    31    37 1   
    59    31    82 1   
    60    32    83 1   
    61    34    35 1   
    62    34    40 1   
    63    34    84 1   
    64    35    85 1   
    65    36    42 ar  
    66    36    53 1   
    67    37    38 1   
    68    37    43 1   
    69    37    86 1   
    70    39    87 1   
    71    40    41 1   
    72    40    88 1   
    73    40    89 1   
    74    42    46 ar  
    75    42    48 1   
    76    43    44 1   
    77    43    90 1   
    78    43    91 1   
    79    45    52 ar  
    80    46    47 1   
    81    47    92 1   
    82    47    93 1   
    83    48    50 2   
    84    49    94 1   
    85    49    95 1   
    86    49    96 1   
    87    50    53 1   
    88    50    97 1   
    89    51    98 1   
    90    51    99 1   
    91    51   100 1   
    92    54    68 1   
    93    54   101 1   
    94    54   102 1   
    95    55    57 ar  
    96    55    58 ar  
    97    55   112 1   
    98    56    59 ar  
    99    56    60 ar  
   100    56   114 1   
   101    57    61 ar  
   102    57   115 1   
   103    58    62 ar  
   104    58   103 1   
   105    59    63 ar  
   106    59   104 1   
   107    60    64 ar  
   108    60   105 1   
   109    61    66 ar  
   110    61   106 1   
   111    62    66 ar  
   112    62   107 1   
   113    63    67 ar  
   114    63   108 1   
   115    64    67 ar  
   116    64   109 1   
   117    65    68 1   
   118    65   110 1   
   119    65   111 1   
   120    65   113 1   
   121    66   113 1   
   122    67    68 1   
   123   113   116 1   
   124   113   117 1   
@<TRIPOS>SUBSTRUCTURE
     1 D52         1 TEMP              0 ****  ****    0 ROOT
