@<TRIPOS>MOLECULE
D52
  117   124     1     0     0
SMALL
No Charge or Current Charge


@<TRIPOS>ATOM
      1 P           -4.5400    -0.3430     4.2030 p5         1 D52       1.464800
      2 N1           2.7540    -1.8360    -2.4220 ne         1 D52      -0.757100
      3 C2           3.5640    -2.7560    -3.0630 c          1 D52       0.732400
      4 O2           3.1660    -3.7800    -3.5810 o          1 D52      -0.511000
      5 N3           4.8600    -2.3810    -3.1350 ns         1 D52      -0.517500
      6 C4           5.4730    -1.3290    -2.5390 c          1 D52       0.579000
      7 O4           6.5830    -0.9830    -2.9080 o          1 D52      -0.509000
      8 N5           5.1400     0.6700    -0.8090 nh         1 D52      -0.798400
      9 C6           4.5540     3.0890    -1.1070 ca         1 D52      -0.076000
     10 C7           3.6160     4.1140    -1.3270 ca         1 D52      -0.085300
     11 C8           2.2540     3.7890    -1.4850 ca         1 D52      -0.053300
     12 C9           1.8550     2.4440    -1.4190 ca         1 D52      -0.120000
     13 PA          -5.5400     1.9950     3.6100 p5         1 D52       1.479800
     14 C1           0.9110    -0.3240    -0.9020 c3         1 D52       0.170800
     15 C10          3.2310    -0.8950    -1.6720 c2         1 D52       0.709200
     16 N10          2.3500     0.0410    -1.1420 nh         1 D52      -0.718400
     17 N1A         -9.4320    -1.3870    -3.3810 nb         1 D52      -0.328000
     18 O1A         -6.8490     1.3870     3.2290 o          1 D52      -0.849000
     19 C1B         -5.1260     0.2050    -0.8020 c5         1 D52       0.331300
     20 O1P         -4.9540    -0.2270     5.6340 o          1 D52      -0.850500
     21 C11          0.3340     0.1670     0.4610 c3         1 D52       0.120300
     22 O6           1.4320     0.2390     1.3900 oh         1 D52      -0.720000
     23 C2A         -8.2590    -0.8830    -3.8380 ca         1 D52       0.145900
     24 O2A         -5.6030     2.7000     4.9270 o          1 D52      -0.849000
     25 C2B         -4.8620     1.4990    -1.6610 c5         1 D52       0.062300
     26 O2B         -4.5110     1.2490    -3.0390 oh         1 D52      -0.707000
     27 O2P         -5.4250    -1.2690     3.4350 o          1 D52      -0.850500
     28 C3          -0.7930    -0.7690     1.0110 c3         1 D52       0.094300
     29 O3          -1.8280    -0.9110     0.0210 oh         1 D52      -0.650000
     30 N3A         -7.2120    -0.4660    -3.0870 nb         1 D52      -0.213000
     31 C3B         -3.6720     2.1280    -0.8890 c5         1 D52       0.096300
     32 O3B         -2.4540     1.4560    -1.2300 oh         1 D52      -0.713000
     33 O3P         -4.2810     1.0480     3.5000 os         1 D52      -0.703800
     34 C12         -1.4090    -0.3130     2.3770 c3         1 D52       0.139300
     35 O7          -0.3400    -0.1080     3.3240 oh         1 D52      -0.686000
     36 C4A         -7.3670    -0.5650    -1.7490 ca         1 D52       0.146500
     37 C4B         -4.1320     1.8620     0.5740 c5         1 D52       0.139300
     38 O4B         -4.6170     0.4950     0.5220 os         1 D52      -0.383000
     39 C4X          4.7170    -0.7240    -1.3380 c6         1 D52       0.017200
     40 C5          -2.4330    -1.3560     2.9300 c3         1 D52       0.207600
     41 O5          -3.0200    -0.8890     4.1600 os         1 D52      -0.565400
     42 C5A         -8.5180    -1.0610    -1.1840 ca         1 D52      -0.038600
     43 C5B         -5.2500     2.8270     1.0800 c3         1 D52       0.226600
     44 O5B         -5.1020     3.0750     2.4890 os         1 D52      -0.579400
     45 C5X          4.1740     1.7290    -1.0300 ca         1 D52       0.215000
     46 C6A         -9.5600    -1.4720    -2.0470 ca         1 D52       0.432900
     47 N6A        -10.7400    -1.9900    -1.5980 nv         1 D52      -1.076900
     48 N7A         -8.4640    -1.0890     0.2050 nc         1 D52      -0.551100
     49 C7M          4.0980     5.5620    -1.4080 c3         1 D52      -0.041800
     50 C8A         -7.2330    -0.5900     0.4450 cd         1 D52       0.449700
     51 C8M          1.2060     4.8700    -1.7400 c3         1 D52      -0.048800
     52 C9A          2.7840     1.4060    -1.1860 ca         1 D52       0.251000
     53 N9A         -6.5140    -0.2470    -0.7220 na         1 D52      -0.278300
     54 NAA          5.6280     1.2140     1.2640 n8         1 D52      -1.032200
     55 CAB          9.6380    -4.3900     2.5870 ca         1 D52      -0.118000
     56 CAC          9.3250     3.7320    -1.1700 ca         1 D52      -0.115000
     57 CAD         10.1790    -3.7500     1.4590 ca         1 D52      -0.112500
     58 CAE          8.6470    -3.7490     3.3490 ca         1 D52      -0.112500
     59 CAF          8.9680     3.6340     0.1830 ca         1 D52      -0.125500
     60 CAG          8.7130     2.8930    -2.1130 ca         1 D52      -0.125500
     61 CAH          9.7300    -2.4690     1.0930 ca         1 D52      -0.106000
     62 CAI          8.1990    -2.4670     2.9840 ca         1 D52      -0.106000
     63 CAJ          8.0020     2.6980     0.5930 ca         1 D52      -0.088000
     64 CAK          7.7470     1.9560    -1.7040 ca         1 D52      -0.088000
     65 CAM          7.0540    -0.5440     0.4500 c3         1 D52      -0.070400
     66 CAN          8.7390    -1.8200     1.8560 ca         1 D52      -0.079300
     67 CAO          7.3740     1.8400    -0.3460 ca         1 D52      -0.077300
     68 CAP          6.3190     0.7940     0.0930 c3         1 D52       0.507700
     69 HN3          5.4280    -2.9210    -3.7690 hn         1 D52       0.329500
     70 H6           5.5910     3.3770    -1.0140 ha         1 D52       0.134000
     71 H9           0.8070     2.2130    -1.5730 ha         1 D52       0.129000
     72 H1           0.2750     0.0140    -1.7320 h1         1 D52       0.088200
     73 H1'A         0.8140    -1.4190    -0.8880 h1         1 D52       0.088200
     74 H1B         -4.5570    -0.6380    -1.2170 h2         1 D52       0.095700
     75 H2          -0.0870     1.1720     0.3130 h1         1 D52       0.088700
     76 HO2          2.2230     0.2290     0.7940 ho         1 D52       0.504000
     77 H2A         -8.1430    -0.8090    -4.9180 h5         1 D52       0.012100
     78 H2B         -5.7380     2.1640    -1.6100 h1         1 D52       0.069700
     79 HO2B        -5.3150     0.8940    -3.4880 ho         1 D52       0.492000
     80 H3          -0.3360    -1.7540     1.1830 h1         1 D52       0.072700
     81 HO3         -2.0890    -0.0030    -0.2900 ho         1 D52       0.441000
     82 H3B         -3.5810     3.2040    -1.0960 h1         1 D52       0.037700
     83 HO3B        -2.5520     1.3030    -2.2040 ho         1 D52       0.498000
     84 H4          -1.9370     0.6330     2.2130 h1         1 D52       0.073700
     85 HO4          0.4600     0.0770     2.7540 ho         1 D52       0.493000
     86 H4B         -3.2810     1.9360     1.2590 h1         1 D52       0.085700
     87 H4X          4.8520    -1.4720    -0.5490 h1         1 D52       0.102700
     88 H5          -3.2050    -1.5360     2.1700 h1         1 D52       0.017200
     89 H5'A        -1.9180    -2.3110     3.1010 h1         1 D52       0.017200
     90 H5B         -5.1600     3.7800     0.5440 h1         1 D52       0.012700
     91 H5BA        -6.2410     2.4150     0.8480 h1         1 D52       0.012700
     92 HN6A       -10.7790    -2.2750    -0.6210 hn         1 D52       0.486000
     93 HN6B       -11.3160    -2.5130    -2.2520 hn         1 D52       0.486000
     94 H7M          3.8790     5.9960    -2.3920 hc         1 D52       0.040367
     95 H7MA         3.6100     6.1840    -0.6480 hc         1 D52       0.040367
     96 H7MB         5.1800     5.6440    -1.2500 hc         1 D52       0.040367
     97 H8A         -6.7940    -0.4660     1.4270 h5         1 D52       0.121800
     98 H8M          1.4210     5.4180    -2.6650 hc         1 D52       0.045700
     99 H8MA         0.1970     4.4490    -1.8380 hc         1 D52       0.045700
    100 H8MB         1.1760     5.5930    -0.9160 hc         1 D52       0.045700
    101 HNAA         5.1820     2.0870     0.9940 hn         1 D52       0.434000
    102 HNAB         4.8390     0.5740     1.3100 hn         1 D52       0.434000
    103 HAE          8.2250    -4.2450     4.2200 ha         1 D52       0.108500
    104 HAF          9.4420     4.2820     0.9170 ha         1 D52       0.109000
    105 HAG          8.9840     2.9680    -3.1640 ha         1 D52       0.109000
    106 HAH         10.1500    -1.9830     0.2150 ha         1 D52       0.116000
    107 HAI          7.4270    -1.9800     3.5760 ha         1 D52       0.116000
    108 HAJ          7.7510     2.6370     1.6490 ha         1 D52       0.136500
    109 HAK          7.2750     1.3300    -2.4530 ha         1 D52       0.136500
    110 HAM          7.4380    -1.0020    -0.4660 hc         1 D52       0.050700
    111 HAMA         6.3390    -1.2490     0.8880 hc         1 D52       0.050700
    112 HAB          9.9830    -5.3830     2.8680 ha         1 D52       0.105000
    113 CAL          8.2350    -0.4410     1.4500 c3         1 D52      -0.027100
    114 HAC         10.0730     4.4550    -1.4870 ha         1 D52       0.104000
    115 HAD         10.9430    -4.2480     0.8660 ha         1 D52       0.108500
    116 HAL          9.0520     0.1350     0.9990 hc         1 D52       0.064700
    117 HALA         7.9190     0.1160     2.3400 hc         1 D52       0.064700
@<TRIPOS>BOND
     1     1    20 1   
     2     1    27 1   
     3     1    33 1   
     4     1    41 1   
     5     2     3 1   
     6     2    15 2   
     7     3     4 2   
     8     3     5 1   
     9     5     6 1   
    10     5    69 1   
    11     6     7 2   
    12     6    39 1   
    13     8    39 1   
    14     8    45 1   
    15     8    68 1   
    16     9    10 ar  
    17     9    45 ar  
    18     9    70 1   
    19    10    11 ar  
    20    10    49 1   
    21    11    12 ar  
    22    11    51 1   
    23    12    52 ar  
    24    12    71 1   
    25    13    18 1   
    26    13    24 1   
    27    13    33 1   
    28    13    44 1   
    29    14    16 1   
    30    14    21 1   
    31    14    72 1   
    32    14    73 1   
    33    15    16 1   
    34    15    39 1   
    35    16    52 1   
    36    17    23 ar  
    37    17    46 ar  
    38    19    25 1   
    39    19    38 1   
    40    19    53 1   
    41    19    74 1   
    42    21    22 1   
    43    21    28 1   
    44    21    75 1   
    45    22    76 1   
    46    23    30 ar  
    47    23    77 1   
    48    25    26 1   
    49    25    31 1   
    50    25    78 1   
    51    26    79 1   
    52    28    29 1   
    53    28    34 1   
    54    28    80 1   
    55    29    81 1   
    56    30    36 ar  
    57    31    32 1   
    58    31    37 1   
    59    31    82 1   
    60    32    83 1   
    61    34    35 1   
    62    34    40 1   
    63    34    84 1   
    64    35    85 1   
    65    36    42 ar  
    66    36    53 1   
    67    37    38 1   
    68    37    43 1   
    69    37    86 1   
    70    39    87 1   
    71    40    41 1   
    72    40    88 1   
    73    40    89 1   
    74    42    46 ar  
    75    42    48 1   
    76    43    44 1   
    77    43    90 1   
    78    43    91 1   
    79    45    52 ar  
    80    46    47 1   
    81    47    92 1   
    82    47    93 1   
    83    48    50 2   
    84    49    94 1   
    85    49    95 1   
    86    49    96 1   
    87    50    53 1   
    88    50    97 1   
    89    51    98 1   
    90    51    99 1   
    91    51   100 1   
    92    54    68 1   
    93    54   101 1   
    94    54   102 1   
    95    55    57 ar  
    96    55    58 ar  
    97    55   112 1   
    98    56    59 ar  
    99    56    60 ar  
   100    56   114 1   
   101    57    61 ar  
   102    57   115 1   
   103    58    62 ar  
   104    58   103 1   
   105    59    63 ar  
   106    59   104 1   
   107    60    64 ar  
   108    60   105 1   
   109    61    66 ar  
   110    61   106 1   
   111    62    66 ar  
   112    62   107 1   
   113    63    67 ar  
   114    63   108 1   
   115    64    67 ar  
   116    64   109 1   
   117    65    68 1   
   118    65   110 1   
   119    65   111 1   
   120    65   113 1   
   121    66   113 1   
   122    67    68 1   
   123   113   116 1   
   124   113   117 1   
@<TRIPOS>SUBSTRUCTURE
     1 D52         1 TEMP              0 ****  ****    0 ROOT
