@<TRIPOS>MOLECULE
D53
   26    26     1     0     0
SMALL
abcg2


@<TRIPOS>ATOM
      1 CAD         -5.4690    -0.1710     0.5200 ca         1 D53      -0.123000
      2 CAE         -5.1360     0.9880    -0.1670 ca         1 D53      -0.121500
      3 CAF         -4.4970    -1.1390     0.7430 ca         1 D53      -0.121500
      4 CAG         -3.8370     1.1760    -0.6280 ca         1 D53      -0.099000
      5 CAH         -3.2030    -0.9480     0.2810 ca         1 D53      -0.099000
      6 CAI          0.8900     0.1380    -0.4550 c3         1 D53       0.195800
      7 CAJ          1.8770    -0.2450     0.6340 c3         1 D53      -0.359400
      8 CAM         -2.8590     0.2100    -0.4150 ca         1 D53      -0.073300
      9 NAL         -0.4660     0.0710     0.0570 n7         1 D53      -0.865400
     10 OAA          3.6010    -1.3510    -1.0000 o          1 D53      -0.697533
     11 OAB          3.8900     1.0350    -0.4600 o          1 D53      -0.697533
     12 OAC          4.3780    -0.6780     1.2410 o          1 D53      -0.697533
     13 SAN          3.5790    -0.3150     0.0530 s6         1 D53       1.322600
     14 H1          -6.4780    -0.3190     0.8820 ha         1 D53       0.099000
     15 H2          -5.8850     1.7500    -0.3410 ha         1 D53       0.102000
     16 H3          -4.7490    -2.0450     1.2790 ha         1 D53       0.102000
     17 H4          -3.5830     2.0860    -1.1590 ha         1 D53       0.121000
     18 H5          -2.4460    -1.7010     0.4630 ha         1 D53       0.121000
     19 H6           1.1500     1.1280    -0.8560 h1         1 D53       0.040700
     20 H7           0.9740    -0.5700    -1.2840 h1         1 D53       0.040700
     21 H8           1.8480     0.4740     1.4570 h1         1 D53       0.070200
     22 H9           1.6300    -1.2280     1.0390 h1         1 D53       0.070200
     23 H10         -1.3120    -0.2830    -1.7930 h1         1 D53       0.032200
     24 H11         -1.3560     1.4130    -1.3490 h1         1 D53       0.032200
     25 H12         -0.5620     0.7170     0.8330 hn         1 D53       0.402000
     26 CAK         -1.4610     0.3950    -0.9450 c3         1 D53       0.201100
@<TRIPOS>BOND
     1     1     2 ar  
     2     1     3 ar  
     3     1    14 1   
     4     2     4 ar  
     5     2    15 1   
     6     3     5 ar  
     7     3    16 1   
     8     4     8 ar  
     9     4    17 1   
    10     5     8 ar  
    11     5    18 1   
    12     6     7 1   
    13     6     9 1   
    14     6    19 1   
    15     6    20 1   
    16     7    13 1   
    17     7    21 1   
    18     7    22 1   
    19     8    26 1   
    20     9    25 1   
    21     9    26 1   
    22    10    13 1   
    23    11    13 1   
    24    12    13 1   
    25    23    26 1   
    26    24    26 1   
@<TRIPOS>SUBSTRUCTURE
     1 D53         1 TEMP              0 ****  ****    0 ROOT
