@<TRIPOS>MOLECULE
D53
   26    26     1     0     0
SMALL
No Charge or Current Charge


@<TRIPOS>ATOM
      1 CAD         -5.4550     0.0050     0.6570 ca         1 D53      -0.123000
      2 CAE         -4.8370     1.2160     0.3040 ca         1 D53      -0.121500
      3 CAF         -4.7860    -1.2120     0.4430 ca         1 D53      -0.121500
      4 CAG         -3.5500     1.2110    -0.2630 ca         1 D53      -0.099000
      5 CAH         -3.4990    -1.2170    -0.1240 ca         1 D53      -0.099000
      6 CAI          0.9380    -0.0170    -0.5500 c3         1 D53       0.195800
      7 CAJ          1.8680    -0.0300     0.6610 c3         1 D53      -0.359400
      8 CAM         -2.8730    -0.0060    -0.4810 ca         1 D53      -0.073300
      9 NAL         -0.4440    -0.0550    -0.0570 n7         1 D53      -0.865400
     10 OAA          3.7650    -1.2180    -0.6340 o          1 D53      -0.697533
     11 OAB          3.7330     1.2550    -0.5840 o          1 D53      -0.697533
     12 OAC          4.3190    -0.0150     1.4530 o          1 D53      -0.697533
     13 SAN          3.6000     0.0010     0.1710 s6         1 D53       1.322600
     14 H1          -6.4500     0.0090     1.0960 ha         1 D53       0.099000
     15 H2          -5.3540     2.1590     0.4700 ha         1 D53       0.102000
     16 H3          -5.2630    -2.1500     0.7170 ha         1 D53       0.102000
     17 H4          -3.0790     2.1540    -0.5340 ha         1 D53       0.121000
     18 H5          -2.9850    -2.1620    -0.2850 ha         1 D53       0.121000
     19 H6           1.1120     0.8930    -1.1430 h1         1 D53       0.040700
     20 H7           1.1430    -0.8870    -1.1900 h1         1 D53       0.040700
     21 H8           1.7050     0.8510     1.2900 h1         1 D53       0.070200
     22 H9           1.7260    -0.9410     1.2510 h1         1 D53       0.070200
     23 H10         -1.3900    -0.8840    -1.7670 h1         1 D53       0.032200
     24 H11         -1.3630     0.8850    -1.7240 h1         1 D53       0.032200
     25 H12         -0.5830     0.7580     0.5520 hn         1 D53       0.402000
     26 CAK         -1.4820    -0.0140    -1.1020 c3         1 D53       0.201100
@<TRIPOS>BOND
     1     1     2 ar  
     2     1     3 ar  
     3     1    14 1   
     4     2     4 ar  
     5     2    15 1   
     6     3     5 ar  
     7     3    16 1   
     8     4     8 ar  
     9     4    17 1   
    10     5     8 ar  
    11     5    18 1   
    12     6     7 1   
    13     6     9 1   
    14     6    19 1   
    15     6    20 1   
    16     7    13 1   
    17     7    21 1   
    18     7    22 1   
    19     8    26 1   
    20     9    25 1   
    21     9    26 1   
    22    10    13 1   
    23    11    13 1   
    24    12    13 1   
    25    23    26 1   
    26    24    26 1   
@<TRIPOS>SUBSTRUCTURE
     1 D53         1 TEMP              0 ****  ****    0 ROOT
