@<TRIPOS>MOLECULE
D54
   19    18     1     0     0
SMALL
bcc


@<TRIPOS>ATOM
      1 OAA         -4.2420     0.1460     0.2230 o          1 D54      -0.541100
      2 OAB         -2.1470    -1.4990     0.5750 oh         1 D54      -0.585800
      3 OAC          1.6560     1.6040    -0.5010 o          1 D54      -0.555100
      4 OAD          2.9940    -1.5420     0.0290 o          1 D54      -0.801300
      5 CAE         -3.2940     0.3140    -0.5020 c          1 D54       0.554900
      6 CAF         -2.0600    -0.5440    -0.4410 c3         1 D54      -0.014900
      7 CAG         -0.8420     0.3650    -0.2410 c3         1 D54       0.154100
      8 CAH          0.4500    -0.4350    -0.2360 c3         1 D54      -0.219400
      9 CAI          1.6930     0.4190    -0.2690 c          1 D54       0.429100
     10 CAJ          3.0530    -0.3020    -0.0350 c          1 D54       0.859600
     11 OAK         -1.0000     1.1350     0.9280 oh         1 D54      -0.592800
     12 OAL          4.0430     0.4360     0.0530 o          1 D54      -0.801300
     13 HAE         -3.2800     1.1060    -1.2690 h4         1 D54      -0.000800
     14 HAF         -1.9720    -1.0210    -1.4320 h1         1 D54       0.068700
     15 HAG         -0.8230     1.0730    -1.0750 h1         1 D54       0.076700
     16 HAH          0.4940    -1.1040     0.6280 hc         1 D54       0.075700
     17 HAHA         0.4910    -1.0980    -1.1070 hc         1 D54       0.075700
     18 HOAK        -1.0800     0.5310     1.6760 ho         1 D54       0.404000
     19 HOAB        -3.0230    -1.4330     0.9780 ho         1 D54       0.414000
@<TRIPOS>BOND
     1     1     5 2   
     2     2     6 1   
     3     2    19 1   
     4     3     9 2   
     5     4    10 1   
     6     5     6 1   
     7     5    13 1   
     8     6     7 1   
     9     6    14 1   
    10     7     8 1   
    11     7    11 1   
    12     7    15 1   
    13     8     9 1   
    14     8    16 1   
    15     8    17 1   
    16     9    10 1   
    17    10    12 1   
    18    11    18 1   
@<TRIPOS>SUBSTRUCTURE
     1 D54         1 TEMP              0 ****  ****    0 ROOT
