@<TRIPOS>MOLECULE
D54
   19    18     1     0     0
SMALL
No Charge or Current Charge


@<TRIPOS>ATOM
      1 OAA         -4.2200     0.3540     0.6290 o          1 D54      -0.541100
      2 OAB         -2.1290    -1.5560     0.5810 oh         1 D54      -0.648000
      3 OAC          2.0070     1.0450    -1.6990 o          1 D54      -0.555100
      4 OAD          2.8850    -1.1240     0.9140 o          1 D54      -0.696000
      5 CAE         -3.2610     0.5820    -0.1060 c          1 D54       0.554900
      6 CAF         -2.0960    -0.4220    -0.3390 c3         1 D54       0.008300
      7 CAG         -0.7210     0.2950    -0.2500 c3         1 D54       0.177300
      8 CAH          0.4430    -0.5500    -0.8050 c3         1 D54      -0.219400
      9 CAI          1.7570     0.2520    -0.7860 c          1 D54       0.429100
     10 CAJ          2.7710     0.0120     0.4570 c          1 D54       0.649000
     11 OAK         -0.4580     0.5940     1.1200 oh         1 D54      -0.655000
     12 OAL          3.4360     0.9630     0.8630 o          1 D54      -0.696000
     13 HAE         -3.1830     1.5430    -0.6610 h4         1 D54      -0.000800
     14 HAF         -2.2210    -0.7740    -1.3720 h1         1 D54       0.068700
     15 HAG         -0.7730     1.2240    -0.8400 h1         1 D54       0.076700
     16 HAH          0.5430    -1.4450    -0.1810 hc         1 D54       0.075700
     17 HAHA         0.2120    -0.8320    -1.8380 hc         1 D54       0.075700
     18 HOAK        -0.8110    -0.1840     1.6090 ho         1 D54       0.443000
     19 HOAB        -3.0710    -1.8260     0.6850 ho         1 D54       0.453000
@<TRIPOS>BOND
     1     1     5 2   
     2     2     6 1   
     3     2    19 1   
     4     3     9 2   
     5     4    10 1   
     6     5     6 1   
     7     5    13 1   
     8     6     7 1   
     9     6    14 1   
    10     7     8 1   
    11     7    11 1   
    12     7    15 1   
    13     8     9 1   
    14     8    16 1   
    15     8    17 1   
    16     9    10 1   
    17    10    12 1   
    18    11    18 1   
@<TRIPOS>SUBSTRUCTURE
     1 D54         1 TEMP              0 ****  ****    0 ROOT
