@<TRIPOS>MOLECULE
D57
   52    54     1     0     0
SMALL
bcc


@<TRIPOS>ATOM
      1 CAA          2.1850     4.0790     1.5500 c3         1 D57       0.127700
      2 CAC          2.5700     2.1440     0.2670 c          1 D57       0.678700
      3 CAE          2.6010     0.6530     0.3060 ca         1 D57      -0.211100
      4 CAF          3.5980     0.0370     1.0670 ca         1 D57       0.241100
      5 CAH          3.7010    -1.3450     1.1090 ca         1 D57      -0.348000
      6 CAI          2.8030    -2.1170     0.3870 ca         1 D57       0.241100
      7 CAK          1.7990    -1.5130    -0.3770 ca         1 D57      -0.211100
      8 CAL          0.8260    -2.3870    -1.0910 c          1 D57       0.678700
      9 CAO          0.6030    -4.0660    -2.7230 c3         1 D57       0.127700
     10 CAP          1.6960    -0.1210    -0.4230 ca         1 D57       0.088700
     11 CAQ          0.5940     0.5510    -1.2010 c3         1 D57      -0.052100
     12 CAR         -0.6020     0.9030    -0.3020 c3         1 D57      -0.097700
     13 CAS         -1.6740     1.5960    -1.0700 cc         1 D57       0.406800
     14 CAU         -2.7520     3.0440    -2.2160 cd         1 D57       0.297200
     15 CAV         -3.5560     1.9450    -2.1450 cc         1 D57      -0.270600
     16 CAY         -3.7580    -0.3410     0.4270 ca         1 D57      -0.116300
     17 CAZ         -3.3000    -1.3650     1.2480 ca         1 D57      -0.110000
     18 CBA         -3.7020    -1.4410     2.5760 ca         1 D57      -0.131000
     19 CBB         -4.5650    -0.4870     3.0960 ca         1 D57      -0.120000
     20 CBC         -5.0240     0.5420     2.2820 ca         1 D57      -0.131000
     21 CBD         -4.6250     0.6130     0.9550 ca         1 D57      -0.110000
     22 NAT         -1.5850     2.8150    -1.5460 nd         1 D57      -0.678000
     23 NAW         -2.8540     1.0240    -1.4160 na         1 D57      -0.178900
     24 OAB          2.2130     2.6540     1.4340 os         1 D57      -0.401900
     25 OAD          2.8330     2.8100    -0.7030 o          1 D57      -0.537000
     26 OAG          4.4480     0.8360     1.7230 oh         1 D57      -0.477600
     27 OAJ          2.8350    -3.4550     0.4160 oh         1 D57      -0.477600
     28 OAM         -0.3590    -2.4170    -0.8650 o          1 D57      -0.537000
     29 OAN          1.4150    -3.1310    -2.0100 os         1 D57      -0.401900
     30 H1           1.4360     4.5120     0.8880 h1         1 D57       0.049033
     31 H2           1.9190     4.2870     2.5810 h1         1 D57       0.049033
     32 H3           3.1580     4.5150     1.3290 h1         1 D57       0.049033
     33 H4           4.4790    -1.8180     1.6990 ha         1 D57       0.140000
     34 H5          -0.1460    -3.5580    -3.3290 h1         1 D57       0.049033
     35 H6           1.2800    -4.6140    -3.3700 h1         1 D57       0.049033
     36 H7           0.1080    -4.7610    -2.0450 h1         1 D57       0.049033
     37 H8           0.9660     1.4610    -1.6700 hc         1 D57       0.075700
     38 H9           0.2540    -0.0780    -2.0230 hc         1 D57       0.075700
     39 H10         -0.9810    -0.0020     0.1700 hc         1 D57       0.070200
     40 H11         -0.2770     1.5560     0.5100 hc         1 D57       0.070200
     41 H12         -2.9520     3.9800    -2.7140 h4         1 D57       0.035100
     42 H13         -4.5360     1.7360    -2.5410 h4         1 D57       0.171000
     43 H14         -2.5630    -1.0290    -1.2160 h1         1 D57       0.074200
     44 H15         -4.1760    -0.5300    -1.6700 h1         1 D57       0.074200
     45 H16         -2.6170    -2.1050     0.8480 ha         1 D57       0.140500
     46 H17         -3.3340    -2.2420     3.2040 ha         1 D57       0.132000
     47 H18         -4.8770    -0.5420     4.1310 ha         1 D57       0.130000
     48 H19         -5.6960     1.2900     2.6810 ha         1 D57       0.132000
     49 H20         -4.9950     1.4180     0.3310 ha         1 D57       0.140500
     50 H21          5.1160     0.3210     2.1910 ho         1 D57       0.435000
     51 H22          3.5370    -3.7680     0.9990 ho         1 D57       0.435000
     52 CAX         -3.3350    -0.2850    -1.0200 c3         1 D57       0.083600
@<TRIPOS>BOND
     1     1    24 1   
     2     1    30 1   
     3     1    31 1   
     4     1    32 1   
     5     2     3 1   
     6     2    24 1   
     7     2    25 2   
     8     3     4 ar  
     9     3    10 ar  
    10     4     5 ar  
    11     4    26 1   
    12     5     6 ar  
    13     5    33 1   
    14     6     7 ar  
    15     6    27 1   
    16     7     8 1   
    17     7    10 ar  
    18     8    28 2   
    19     8    29 1   
    20     9    29 1   
    21     9    34 1   
    22     9    35 1   
    23     9    36 1   
    24    10    11 1   
    25    11    12 1   
    26    11    37 1   
    27    11    38 1   
    28    12    13 1   
    29    12    39 1   
    30    12    40 1   
    31    13    22 2   
    32    13    23 1   
    33    14    15 2   
    34    14    22 1   
    35    14    41 1   
    36    15    23 1   
    37    15    42 1   
    38    16    17 ar  
    39    16    21 ar  
    40    16    52 1   
    41    17    18 ar  
    42    17    45 1   
    43    18    19 ar  
    44    18    46 1   
    45    19    20 ar  
    46    19    47 1   
    47    20    21 ar  
    48    20    48 1   
    49    21    49 1   
    50    23    52 1   
    51    26    50 1   
    52    27    51 1   
    53    43    52 1   
    54    44    52 1   
@<TRIPOS>SUBSTRUCTURE
     1 D57         1 TEMP              0 ****  ****    0 ROOT
