@<TRIPOS>MOLECULE
D57
   52    54     1     0     0
SMALL
No Charge or Current Charge


@<TRIPOS>ATOM
      1 CAA          2.3710     4.3630     0.7230 c3         1 D57       0.150900
      2 CAC          2.9780     2.1700    -0.0630 c          1 D57       0.629700
      3 CAE          2.9000     0.7100     0.2340 ca         1 D57      -0.211100
      4 CAF          3.9360     0.1160     0.9670 ca         1 D57       0.241100
      5 CAH          3.8940    -1.2450     1.2790 ca         1 D57      -0.330000
      6 CAI          2.8100    -2.0200     0.8600 ca         1 D57       0.241100
      7 CAK          1.7650    -1.4440     0.1230 ca         1 D57      -0.211100
      8 CAL          0.6230    -2.3080    -0.2940 c          1 D57       0.629700
      9 CAO         -0.3430    -3.5290    -2.1320 c3         1 D57       0.150900
     10 CAP          1.8000    -0.0660    -0.2040 ca         1 D57       0.088700
     11 CAQ          0.6530     0.5830    -0.9920 c3         1 D57      -0.052100
     12 CAR         -0.4820     1.0910    -0.0730 c3         1 D57      -0.097700
     13 CAS         -1.5760     1.7950    -0.8320 cc         1 D57       0.406800
     14 CAU         -2.7220     3.3280    -1.8240 cd         1 D57       0.231900
     15 CAV         -3.4420     2.1720    -1.9780 cc         1 D57      -0.238000
     16 CAY         -3.6960    -0.6300     0.1100 ca         1 D57      -0.116300
     17 CAZ         -3.5840    -1.9650     0.5470 ca         1 D57      -0.092000
     18 CBA         -4.1360    -2.3620     1.7780 ca         1 D57      -0.113000
     19 CBB         -4.8110    -1.4280     2.5800 ca         1 D57      -0.102000
     20 CBC         -4.9350    -0.0970     2.1490 ca         1 D57      -0.113000
     21 CBD         -4.3830     0.3020     0.9200 ca         1 D57      -0.092000
     22 NAT         -1.5640     3.0880    -1.1160 nd         1 D57      -0.678000
     23 NAW         -2.7080     1.1900    -1.3460 na         1 D57      -0.157500
     24 OAB          2.3930     2.9370     0.9100 os         1 D57      -0.425100
     25 OAD          3.4950     2.6160    -1.0790 o          1 D57      -0.488000
     26 OAG          4.9980     0.8550     1.3890 oh         1 D57      -0.516600
     27 OAJ          2.7910    -3.3440     1.1700 oh         1 D57      -0.516600
     28 OAM         -0.2840    -2.6240     0.4630 o          1 D57      -0.488000
     29 OAN          0.6990    -2.6860    -1.6090 os         1 D57      -0.425100
     30 H1           1.8220     4.6290    -0.1890 h1         1 D57       0.049033
     31 H2           1.8770     4.8520     1.5720 h1         1 D57       0.049033
     32 H3           3.3900     4.7640     0.6460 h1         1 D57       0.049033
     33 H4           4.7020    -1.6990     1.8470 ha         1 D57       0.122000
     34 H5          -1.3210    -3.0360    -2.0590 h1         1 D57       0.049033
     35 H6          -0.1560    -3.7570    -3.1890 h1         1 D57       0.049033
     36 H7          -0.3900    -4.4780    -1.5820 h1         1 D57       0.049033
     37 H8           1.0210     1.4200    -1.5970 hc         1 D57       0.075700
     38 H9           0.2350    -0.1140    -1.7260 hc         1 D57       0.075700
     39 H10         -0.8980     0.2520     0.4960 hc         1 D57       0.070200
     40 H11         -0.0640     1.7790     0.6710 hc         1 D57       0.070200
     41 H12         -2.9740     4.3190    -2.1850 h4         1 D57       0.035100
     42 H13         -4.3880     1.9890    -2.4710 h4         1 D57       0.153000
     43 H14         -2.1860    -0.8390    -1.4190 h1         1 D57       0.074200
     44 H15         -3.7980    -0.4650    -2.0310 h1         1 D57       0.074200
     45 H16         -3.0650    -2.7000    -0.0650 ha         1 D57       0.122500
     46 H17         -4.0410    -3.3940     2.1080 ha         1 D57       0.114000
     47 H18         -5.2380    -1.7350     3.5320 ha         1 D57       0.112000
     48 H19         -5.4610     0.6270     2.7680 ha         1 D57       0.114000
     49 H20         -4.4970     1.3360     0.6030 ha         1 D57       0.122500
     50 H21          5.6020     0.2620     1.8800 ho         1 D57       0.474000
     51 H22          3.6020    -3.5450     1.6810 ho         1 D57       0.474000
     52 CAX         -3.0810    -0.2320    -1.2340 c3         1 D57       0.112900
@<TRIPOS>BOND
     1     1    24 1   
     2     1    30 1   
     3     1    31 1   
     4     1    32 1   
     5     2     3 1   
     6     2    24 1   
     7     2    25 2   
     8     3     4 ar  
     9     3    10 ar  
    10     4     5 ar  
    11     4    26 1   
    12     5     6 ar  
    13     5    33 1   
    14     6     7 ar  
    15     6    27 1   
    16     7     8 1   
    17     7    10 ar  
    18     8    28 2   
    19     8    29 1   
    20     9    29 1   
    21     9    34 1   
    22     9    35 1   
    23     9    36 1   
    24    10    11 1   
    25    11    12 1   
    26    11    37 1   
    27    11    38 1   
    28    12    13 1   
    29    12    39 1   
    30    12    40 1   
    31    13    22 2   
    32    13    23 1   
    33    14    15 2   
    34    14    22 1   
    35    14    41 1   
    36    15    23 1   
    37    15    42 1   
    38    16    17 ar  
    39    16    21 ar  
    40    16    52 1   
    41    17    18 ar  
    42    17    45 1   
    43    18    19 ar  
    44    18    46 1   
    45    19    20 ar  
    46    19    47 1   
    47    20    21 ar  
    48    20    48 1   
    49    21    49 1   
    50    23    52 1   
    51    26    50 1   
    52    27    51 1   
    53    43    52 1   
    54    44    52 1   
@<TRIPOS>SUBSTRUCTURE
     1 D57         1 TEMP              0 ****  ****    0 ROOT
