@<TRIPOS>MOLECULE
D58
   48    51     1     0     0
SMALL
abcg2


@<TRIPOS>ATOM
      1 C1          -3.6730    -2.3480     2.0130 c3         1 D58      -0.088100
      2 C2          -4.0470    -2.0540     0.5680 c6         1 D58       0.159500
      3 C3          -5.9560    -1.8480    -0.9290 c6         1 D58       0.150800
      4 C7          -1.2930     0.4060     0.1930 ca         1 D58       0.685900
      5 C8          -1.1580     2.6950     0.3160 ca         1 D58       0.434900
      6 C9           0.2210     2.7450     0.2100 ca         1 D58      -0.255600
      7 C10          1.0380     3.9730     0.1900 c          1 D58       0.634700
      8 C11          0.8590     1.4940     0.1270 ca         1 D58      -0.083000
      9 C12          2.2760    -0.5440    -0.0150 cc         1 D58      -0.045600
     10 C13          0.9540    -0.8490     0.0430 cd         1 D58      -0.157200
     11 C14          0.1260     0.3100     0.1230 ca         1 D58      -0.203800
     12 C15          3.4050    -1.4700    -0.0910 ca         1 D58      -0.021800
     13 C16          4.6030    -1.1050    -0.7120 ca         1 D58      -0.099500
     14 C19          4.3610    -3.6400     0.3850 ca         1 D58      -0.109000
     15 C20          3.3020    -2.7500     0.4620 ca         1 D58      -0.099500
     16 N1          -5.4910    -2.1510     0.4150 n7         1 D58      -0.850400
     17 C4          -5.4960    -0.4860    -1.4330 c6         1 D58      -0.111400
     18 C5          -3.9800    -0.3840    -1.3310 c6         1 D58      -0.098400
     19 C6          -3.5010    -0.6980     0.0880 c6         1 D58       0.199500
     20 N2          -2.0530    -0.7020     0.1680 nu         1 D58      -0.910100
     21 N3          -1.8920     1.5870     0.3060 nb         1 D58      -0.782000
     22 O1           2.2640     3.8810     0.1820 o          1 D58      -0.624100
     23 N4           0.4080     5.1560     0.1810 nt         1 D58      -0.600000
     24 S1           2.5490     1.1800     0.0330 ss         1 D58       0.216400
     25 C17          5.6640    -1.9960    -0.7810 ca         1 D58      -0.109000
     26 C18          5.5470    -3.2670    -0.2350 ca         1 D58      -0.107000
     27 H1          -4.0860    -3.3080     2.3230 hc         1 D58       0.043367
     28 H2          -2.5940    -2.3850     2.1530 hc         1 D58       0.043367
     29 H3          -4.0680    -1.5780     2.6800 hc         1 D58       0.043367
     30 H4          -3.6090    -2.8340    -0.0730 h1         1 D58       0.054700
     31 H5          -5.5800    -2.6270    -1.6010 h1         1 D58       0.053700
     32 H6          -7.0450    -1.9210    -0.9420 h1         1 D58       0.053700
     33 H7          -1.7350     3.6080     0.4200 h4         1 D58       0.006100
     34 H8           0.5860    -1.8660     0.0120 ha         1 D58       0.194000
     35 H9           4.7070    -0.1260    -1.1640 ha         1 D58       0.115500
     36 H10          4.2620    -4.6260     0.8210 ha         1 D58       0.113500
     37 H11          2.3930    -3.0460     0.9710 ha         1 D58       0.115500
     38 H12         -5.9340    -1.5160     1.0710 hn         1 D58       0.409000
     39 H14         -5.8190    -0.3300    -2.4650 hc         1 D58       0.048200
     40 H15         -5.9640     0.3020    -0.8330 hc         1 D58       0.048200
     41 H16         -3.5180    -1.0960    -2.0240 hc         1 D58       0.051700
     42 H17         -3.6360     0.6110    -1.6210 hc         1 D58       0.051700
     43 H18         -3.8730     0.0750     0.7680 h1         1 D58       0.081700
     44 H19         -1.5970    -1.5680    -0.0730 hn         1 D58       0.491000
     45 H20          0.9480     6.0050     0.1460 hn         1 D58       0.314500
     46 H21         -0.5900     5.2520     0.1140 hn         1 D58       0.314500
     47 H22          6.5810    -1.6950    -1.2690 ha         1 D58       0.113500
     48 H23          6.3750    -3.9620    -0.2890 ha         1 D58       0.113000
@<TRIPOS>BOND
     1     1     2 1   
     2     1    27 1   
     3     1    28 1   
     4     1    29 1   
     5     2    16 1   
     6     2    19 1   
     7     2    30 1   
     8     3    16 1   
     9     3    17 1   
    10     3    31 1   
    11     3    32 1   
    12     4    11 ar  
    13     4    20 1   
    14     4    21 ar  
    15     5     6 ar  
    16     5    21 ar  
    17     5    33 1   
    18     6     7 1   
    19     6     8 ar  
    20     7    22 2   
    21     7    23 1   
    22     8    11 ar  
    23     8    24 1   
    24     9    10 2   
    25     9    12 1   
    26     9    24 1   
    27    10    11 1   
    28    10    34 1   
    29    12    13 ar  
    30    12    15 ar  
    31    13    25 ar  
    32    13    35 1   
    33    14    15 ar  
    34    14    26 ar  
    35    14    36 1   
    36    15    37 1   
    37    16    38 1   
    38    17    18 1   
    39    17    39 1   
    40    17    40 1   
    41    18    19 1   
    42    18    41 1   
    43    18    42 1   
    44    19    20 1   
    45    19    43 1   
    46    20    44 1   
    47    23    45 1   
    48    23    46 1   
    49    25    26 ar  
    50    25    47 1   
    51    26    48 1   
@<TRIPOS>SUBSTRUCTURE
     1 D58         1 TEMP              0 ****  ****    0 ROOT
