@<TRIPOS>MOLECULE
D58
   48    51     1     0     0
SMALL
No Charge or Current Charge


@<TRIPOS>ATOM
      1 C1          -4.0740    -2.0030     2.3220 c3         1 D58      -0.088100
      2 C2          -4.1020    -1.9810     0.7700 c6         1 D58       0.159500
      3 C3          -5.6730    -2.1460    -1.1390 c6         1 D58       0.150800
      4 C7          -1.2160     0.5250     0.4360 ca         1 D58       0.685900
      5 C8          -1.1390     2.8250     0.5120 ca         1 D58       0.434900
      6 C9           0.2640     2.8660     0.3470 ca         1 D58      -0.255600
      7 C10          0.9770     4.1940     0.3100 c          1 D58       0.634700
      8 C11          0.9290     1.6210     0.2250 ca         1 D58      -0.083000
      9 C12          2.3650    -0.4280    -0.0110 cc         1 D58      -0.045600
     10 C13          1.0220    -0.7150     0.1260 cd         1 D58      -0.157200
     11 C14          0.1780     0.4600     0.2720 ca         1 D58      -0.203800
     12 C15          3.3650    -1.4810    -0.2120 ca         1 D58      -0.021800
     13 C16          4.5090    -1.2250    -0.9970 ca         1 D58      -0.099500
     14 C19          4.1890    -3.7510     0.1850 ca         1 D58      -0.109000
     15 C20          3.2170    -2.7540     0.3820 ca         1 D58      -0.099500
     16 N1          -5.5180    -2.1460     0.3350 n7         1 D58      -0.850400
     17 C4          -5.1090    -0.8440    -1.7530 c6         1 D58      -0.111400
     18 C5          -3.6240    -0.6420    -1.3630 c6         1 D58      -0.098400
     19 C6          -3.4440    -0.6790     0.1780 c6         1 D58       0.199500
     20 N2          -1.9980    -0.6100     0.4940 nu         1 D58      -0.910100
     21 N3          -1.8690     1.6870     0.5580 nb         1 D58      -0.782000
     22 O1           2.1820     4.3040     0.1730 o          1 D58      -0.624100
     23 N4           0.2460     5.3210     0.4340 nt         1 D58      -0.600000
     24 S1           2.6910     1.3250     0.0010 ss         1 D58       0.216400
     25 C17          5.4790    -2.2230    -1.1940 ca         1 D58      -0.109000
     26 C18          5.3190    -3.4870    -0.6050 ca         1 D58      -0.107000
     27 H1          -4.5380    -2.9170     2.7120 hc         1 D58       0.043367
     28 H2          -3.0470    -1.9720     2.7020 hc         1 D58       0.043367
     29 H3          -4.6120    -1.1460     2.7440 hc         1 D58       0.043367
     30 H4          -3.5300    -2.8510     0.4140 h1         1 D58       0.054700
     31 H5          -5.1440    -3.0130    -1.5650 h1         1 D58       0.053700
     32 H6          -6.7370    -2.2480    -1.4000 h1         1 D58       0.053700
     33 H7          -1.7230     3.7380     0.6140 h4         1 D58       0.006100
     34 H8           0.6360    -1.7290     0.0950 ha         1 D58       0.194000
     35 H9           4.6460    -0.2540    -1.4650 ha         1 D58       0.115500
     36 H10          4.0660    -4.7280     0.6480 ha         1 D58       0.113500
     37 H11          2.3580    -2.9730     1.0100 ha         1 D58       0.115500
     38 H12         -6.0680    -1.3670     0.7170 hn         1 D58       0.409000
     39 H14         -5.2070    -0.8780    -2.8470 hc         1 D58       0.048200
     40 H15         -5.7040     0.0150    -1.4140 hc         1 D58       0.048200
     41 H16         -3.0150    -1.4300    -1.8300 hc         1 D58       0.051700
     42 H17         -3.2620     0.3140    -1.7650 hc         1 D58       0.051700
     43 H18         -3.9770     0.1810     0.6140 h1         1 D58       0.081700
     44 H19         -1.4590    -1.4660     0.4330 hn         1 D58       0.491000
     45 H20          0.7190     6.2120     0.4090 hn         1 D58       0.314500
     46 H21         -0.7540     5.2790     0.5490 hn         1 D58       0.314500
     47 H22          6.3550    -2.0150    -1.8050 ha         1 D58       0.113500
     48 H23          6.0710    -4.2590    -0.7570 ha         1 D58       0.113000
@<TRIPOS>BOND
     1     1     2 1   
     2     1    27 1   
     3     1    28 1   
     4     1    29 1   
     5     2    16 1   
     6     2    19 1   
     7     2    30 1   
     8     3    16 1   
     9     3    17 1   
    10     3    31 1   
    11     3    32 1   
    12     4    11 ar  
    13     4    20 1   
    14     4    21 ar  
    15     5     6 ar  
    16     5    21 ar  
    17     5    33 1   
    18     6     7 1   
    19     6     8 ar  
    20     7    22 2   
    21     7    23 1   
    22     8    11 ar  
    23     8    24 1   
    24     9    10 2   
    25     9    12 1   
    26     9    24 1   
    27    10    11 1   
    28    10    34 1   
    29    12    13 ar  
    30    12    15 ar  
    31    13    25 ar  
    32    13    35 1   
    33    14    15 ar  
    34    14    26 ar  
    35    14    36 1   
    36    15    37 1   
    37    16    38 1   
    38    17    18 1   
    39    17    39 1   
    40    17    40 1   
    41    18    19 1   
    42    18    41 1   
    43    18    42 1   
    44    19    20 1   
    45    19    43 1   
    46    20    44 1   
    47    23    45 1   
    48    23    46 1   
    49    25    26 ar  
    50    25    47 1   
    51    26    48 1   
@<TRIPOS>SUBSTRUCTURE
     1 D58         1 TEMP              0 ****  ****    0 ROOT
