@<TRIPOS>MOLECULE
D59
   31    32     1     0     0
SMALL
bcc


@<TRIPOS>ATOM
      1 CL1         -4.4250     2.5540    -0.9260 cl         1 D59      -0.093900
      2 C1          -3.6950     1.0650    -0.4300 ca         1 D59       0.061900
      3 C2          -2.3170     0.9460    -0.5220 ca         1 D59      -0.167000
      4 C6          -4.5110     0.0520     0.0400 ca         1 D59      -0.142000
      5 C5          -3.8920    -1.1260     0.4300 ca         1 D59       0.061900
      6 CL2         -4.8650    -2.4240     1.0250 cl         1 D59      -0.093900
      7 C4          -2.5240    -1.2940     0.3570 ca         1 D59      -0.167000
      8 C3          -1.7260    -0.2520    -0.1220 ca         1 D59       0.089600
      9 N1          -0.3550    -0.4980    -0.1700 ns         1 D59      -0.470100
     10 C7           0.6480     0.3230    -0.5750 c          1 D59       0.688700
     11 O1           0.5010     1.4710    -0.9420 o          1 D59      -0.550100
     12 C8           1.9960    -0.3350    -0.5630 ca         1 D59      -0.173600
     13 C9           3.0490     0.2270     0.1710 ca         1 D59       0.045700
     14 C14          2.8130     1.3950     1.0860 c3         1 D59      -0.061800
     15 C13          2.1770    -1.4600    -1.3580 ca         1 D59      -0.069000
     16 C12          3.4180    -2.0680    -1.4500 ca         1 D59      -0.141000
     17 C11          4.4790    -1.5470    -0.7370 ca         1 D59      -0.053000
     18 C10          4.2820    -0.4130     0.0390 ca         1 D59      -0.177200
     19 N2           5.4610     0.1040     0.7210 no         1 D59       0.309200
     20 O2           6.2170    -0.6970     1.2170 o          1 D59      -0.198000
     21 O3           5.6330     1.2990     0.7280 o          1 D59      -0.198000
     22 H1          -1.7310     1.7690    -0.8930 ha         1 D59       0.166500
     23 H2          -5.5830     0.1720     0.1010 ha         1 D59       0.167000
     24 H3          -2.0730    -2.2260     0.6730 ha         1 D59       0.166500
     25 H4          -0.0730    -1.4040     0.1730 hn         1 D59       0.325500
     26 H5           3.0140     2.3410     0.5840 hc         1 D59       0.068367
     27 H6           1.7820     1.4150     1.4290 hc         1 D59       0.068367
     28 H7           3.4380     1.3530     1.9750 hc         1 D59       0.068367
     29 H8           1.3450    -1.8610    -1.9220 ha         1 D59       0.147000
     30 H9           3.5570    -2.9390    -2.0740 ha         1 D59       0.153000
     31 H10          5.4560    -2.0070    -0.8000 ha         1 D59       0.168000
@<TRIPOS>BOND
     1     1     2 1   
     2     2     3 ar  
     3     2     4 ar  
     4     3     8 ar  
     5     3    22 1   
     6     4     5 ar  
     7     4    23 1   
     8     5     6 1   
     9     5     7 ar  
    10     7     8 ar  
    11     7    24 1   
    12     8     9 1   
    13     9    10 1   
    14     9    25 1   
    15    10    11 2   
    16    10    12 1   
    17    12    13 ar  
    18    12    15 ar  
    19    13    14 1   
    20    13    18 ar  
    21    14    26 1   
    22    14    27 1   
    23    14    28 1   
    24    15    16 ar  
    25    15    29 1   
    26    16    17 ar  
    27    16    30 1   
    28    17    18 ar  
    29    17    31 1   
    30    18    19 1   
    31    19    20 1   
    32    19    21 1   
@<TRIPOS>SUBSTRUCTURE
     1 D59         1 TEMP              0 ****  ****    0 ROOT
