@<TRIPOS>MOLECULE
D59
   31    32     1     0     0
SMALL
No Charge or Current Charge


@<TRIPOS>ATOM
      1 Cl1         -4.5410     2.7480     0.0230 cl         1 D59      -0.185500
      2 C1          -3.8310     1.1420    -0.0650 ca         1 D59       0.153500
      3 C2          -2.4350     0.9960    -0.1030 ca         1 D59      -0.149000
      4 C6          -4.6640     0.0140    -0.0940 ca         1 D59      -0.124000
      5 C5          -4.0940    -1.2640    -0.1570 ca         1 D59       0.153500
      6 Cl2         -5.1300    -2.6850    -0.1890 cl         1 D59      -0.185500
      7 C4          -2.6980    -1.4160    -0.1940 ca         1 D59      -0.149000
      8 C3          -1.8520    -0.2900    -0.1740 ca         1 D59      -0.003000
      9 N1          -0.4490    -0.5180    -0.2100 ns         1 D59      -0.144000
     10 C7           0.6380     0.3390    -0.3440 c          1 D59       0.621700
     11 O1           0.5160     1.5450    -0.5230 o          1 D59      -0.550100
     12 C8           1.9970    -0.3450    -0.3440 ca         1 D59      -0.173600
     13 C9           3.1780     0.3020     0.1330 ca         1 D59       0.045700
     14 C14          3.0990     1.6780     0.8100 c3         1 D59      -0.061800
     15 C13          2.0930    -1.6620    -0.8580 ca         1 D59      -0.051000
     16 C12          3.3250    -2.3250    -0.9160 ca         1 D59      -0.123000
     17 C11          4.4880    -1.6850    -0.4800 ca         1 D59      -0.035000
     18 C10          4.4280    -0.3740     0.0330 ca         1 D59      -0.177200
     19 N2           5.7080     0.2660     0.4510 no         1 D59       0.689200
     20 O2           6.5120    -0.4240     1.0910 o          1 D59      -0.388000
     21 O3           5.9830     1.3750    -0.0260 o          1 D59      -0.388000
     22 H1          -1.8280     1.8940    -0.0670 ha         1 D59       0.148500
     23 H2          -5.7430     0.1310    -0.0640 ha         1 D59       0.149000
     24 H3          -2.2760    -2.4160    -0.2430 ha         1 D59       0.148500
     25 H4          -0.1920    -1.4900    -0.0950 hn         1 D59       0.159000
     26 H5           3.1280     2.4850     0.0690 hc         1 D59       0.068367
     27 H6           2.1830     1.7900     1.4000 hc         1 D59       0.068367
     28 H7           3.9150     1.8480     1.5220 hc         1 D59       0.068367
     29 H8           1.2180    -2.1810    -1.2460 ha         1 D59       0.129000
     30 H9           3.3800    -3.3340    -1.3210 ha         1 D59       0.135000
     31 H10          5.4410    -2.2080    -0.5540 ha         1 D59       0.150000
@<TRIPOS>BOND
     1     1     2 1   
     2     2     3 ar  
     3     2     4 ar  
     4     3     8 ar  
     5     3    22 1   
     6     4     5 ar  
     7     4    23 1   
     8     5     6 1   
     9     5     7 ar  
    10     7     8 ar  
    11     7    24 1   
    12     8     9 1   
    13     9    10 1   
    14     9    25 1   
    15    10    11 2   
    16    10    12 1   
    17    12    13 ar  
    18    12    15 ar  
    19    13    14 1   
    20    13    18 ar  
    21    14    26 1   
    22    14    27 1   
    23    14    28 1   
    24    15    16 ar  
    25    15    29 1   
    26    16    17 ar  
    27    16    30 1   
    28    17    18 ar  
    29    17    31 1   
    30    18    19 1   
    31    19    20 1   
    32    19    21 1   
@<TRIPOS>SUBSTRUCTURE
     1 D59         1 TEMP              0 ****  ****    0 ROOT
