@<TRIPOS>MOLECULE
D5B
   36    38     1     0     0
SMALL
bcc


@<TRIPOS>ATOM
      1 C1           3.6380    -0.1350    -0.3020 ca         1 D5B      -0.004000
      2 C2           3.6230    -1.5520    -0.3250 ca         1 D5B      -0.142000
      3 C3           2.4430    -2.2200    -0.2340 ca         1 D5B      -0.027500
      4 C5           1.2240    -0.0790    -0.1060 ca         1 D5B       0.028000
      5 C6           2.4880     0.5930    -0.1920 ca         1 D5B      -0.226800
      6 C7           0.0030    -2.1850    -0.0350 ca         1 D5B      -0.014000
      7 C8          -1.2070    -1.5080     0.0650 ca         1 D5B      -0.065000
      8 C9          -1.2120    -0.0770     0.0720 ca         1 D5B       0.028000
      9 C11         -2.4380    -2.2160     0.1610 ca         1 D5B      -0.027500
     10 C12         -3.6160    -1.5470     0.2620 ca         1 D5B      -0.142000
     11 C13         -3.6260    -0.1290     0.2630 ca         1 D5B      -0.004000
     12 C14         -2.4750     0.5970     0.1680 ca         1 D5B      -0.226800
     13 N1           2.4860     2.5850     1.2610 nz         1 D5B      -0.843600
     14 N2          -2.4620     2.6150    -1.2490 nz         1 D5B      -0.843600
     15 C4           1.2150    -1.5100    -0.1240 ca         1 D5B      -0.065000
     16 C10          0.0070     0.5960    -0.0110 ca         1 D5B      -0.218000
     17 C15          2.5800     2.0860    -0.1440 c3         1 D5B       0.203600
     18 C16         -2.5610     2.0910     0.1460 c3         1 D5B       0.203600
     19 H1           4.5880     0.3790    -0.3760 ha         1 D5B       0.150000
     20 H2           4.5560    -2.0910    -0.4150 ha         1 D5B       0.179000
     21 H3           2.4180    -3.3020    -0.2470 ha         1 D5B       0.171000
     22 H7           0.0010    -3.2690    -0.0440 ha         1 D5B       0.169000
     23 H11         -2.4160    -3.2990     0.1560 ha         1 D5B       0.171000
     24 H12         -4.5510    -2.0840     0.3410 ha         1 D5B       0.179000
     25 H13         -4.5760     0.3860     0.3440 ha         1 D5B       0.150000
     26 HN11         3.2380     2.2140     1.8410 hn         1 D5B       0.456800
     27 HN12         2.5550     3.6030     1.2990 hn         1 D5B       0.456800
     28 HN13         1.6080     2.3300     1.7140 hn         1 D5B       0.456800
     29 HN23        -2.5290     3.6330    -1.2690 hn         1 D5B       0.456800
     30 HN22        -1.5840     2.3660    -1.7040 hn         1 D5B       0.456800
     31 HN21        -3.2140     2.2550    -1.8380 hn         1 D5B       0.456800
     32 H10          0.0090     1.6780    -0.0020 ha         1 D5B       0.077000
     33 H151         3.5380     2.4300    -0.5250 hx         1 D5B       0.099200
     34 H152         1.8000     2.5900    -0.7110 hx         1 D5B       0.099200
     35 H161        -3.5190     2.4310     0.5310 hx         1 D5B       0.099200
     36 H162        -1.7810     2.5820     0.7240 hx         1 D5B       0.099200
@<TRIPOS>BOND
     1     1     2 ar  
     2     1     5 ar  
     3     1    19 1   
     4     2     3 ar  
     5     2    20 1   
     6     3    15 ar  
     7     3    21 1   
     8     4     5 ar  
     9     4    15 ar  
    10     4    16 ar  
    11     5    17 1   
    12     6     7 ar  
    13     6    15 ar  
    14     6    22 1   
    15     7     8 ar  
    16     7     9 ar  
    17     8    12 ar  
    18     8    16 ar  
    19     9    10 ar  
    20     9    23 1   
    21    10    11 ar  
    22    10    24 1   
    23    11    12 ar  
    24    11    25 1   
    25    12    18 1   
    26    13    17 1   
    27    13    26 1   
    28    13    27 1   
    29    13    28 1   
    30    14    18 1   
    31    14    29 1   
    32    14    30 1   
    33    14    31 1   
    34    16    32 1   
    35    17    33 1   
    36    17    34 1   
    37    18    35 1   
    38    18    36 1   
@<TRIPOS>SUBSTRUCTURE
     1 D5B         1 TEMP              0 ****  ****    0 ROOT
