@<TRIPOS>MOLECULE
D5B
   36    38     1     0     0
SMALL
No Charge or Current Charge


@<TRIPOS>ATOM
      1 C1           3.6720    -0.1170    -0.2860 ca         1 D5B       0.014000
      2 C2           3.6490    -1.5190    -0.3020 ca         1 D5B      -0.124000
      3 C3           2.4270    -2.2030    -0.2180 ca         1 D5B      -0.009500
      4 C5           1.2340    -0.0690    -0.1070 ca         1 D5B       0.028000
      5 C6           2.4730     0.6170    -0.1870 ca         1 D5B      -0.226800
      6 C7           0.0030    -2.1800    -0.0360 ca         1 D5B       0.004000
      7 C8          -1.2130    -1.4810     0.0610 ca         1 D5B      -0.065000
      8 C9          -1.2210    -0.0670     0.0720 ca         1 D5B       0.028000
      9 C11         -2.4210    -2.1980     0.1450 ca         1 D5B      -0.009500
     10 C12         -3.6410    -1.5120     0.2410 ca         1 D5B      -0.124000
     11 C13         -3.6590    -0.1100     0.2500 ca         1 D5B       0.014000
     12 C14         -2.4580     0.6220     0.1630 ca         1 D5B      -0.226800
     13 N1           2.5260     2.5300     1.2700 nz         1 D5B      -0.981000
     14 N2          -2.5050     2.5600    -1.2600 nz         1 D5B      -0.981000
     15 C4           1.2210    -1.4830    -0.1210 ca         1 D5B      -0.065000
     16 C10          0.0070     0.6280    -0.0120 ca         1 D5B      -0.200000
     17 C15          2.5650     2.1290    -0.1680 c3         1 D5B       0.175400
     18 C16         -2.5450     2.1340     0.1710 c3         1 D5B       0.175400
     19 H1           4.6280     0.4010    -0.3500 ha         1 D5B       0.132000
     20 H2           4.5800    -2.0760    -0.3770 ha         1 D5B       0.161000
     21 H3           2.4210    -3.2910    -0.2290 ha         1 D5B       0.153000
     22 H7           0.0010    -3.2680    -0.0460 ha         1 D5B       0.151000
     23 H11         -2.4180    -3.2870     0.1370 ha         1 D5B       0.153000
     24 H12         -4.5740    -2.0680     0.3070 ha         1 D5B       0.161000
     25 H13         -4.6140     0.4100     0.3220 ha         1 D5B       0.132000
     26 HN11         3.3180     2.1510     1.8070 hn         1 D5B       0.512000
     27 HN12         2.5500     3.5520     1.4080 hn         1 D5B       0.512000
     28 HN13         1.6790     2.1920     1.7480 hn         1 D5B       0.512000
     29 HN23        -2.5260     3.5840    -1.3790 hn         1 D5B       0.512000
     30 HN22        -1.6590     2.2280    -1.7430 hn         1 D5B       0.512000
     31 HN21        -3.2980     2.1930    -1.8040 hn         1 D5B       0.512000
     32 H10          0.0090     1.7110    -0.0020 ha         1 D5B       0.059000
     33 H151         3.5000     2.4770    -0.6200 hx         1 D5B       0.099200
     34 H152         1.7300     2.5880    -0.7070 hx         1 D5B       0.099200
     35 H161        -3.4790     2.4770     0.6300 hx         1 D5B       0.099200
     36 H162        -1.7090     2.5810     0.7180 hx         1 D5B       0.099200
@<TRIPOS>BOND
     1     1     2 ar  
     2     1     5 ar  
     3     1    19 1   
     4     2     3 ar  
     5     2    20 1   
     6     3    15 ar  
     7     3    21 1   
     8     4     5 ar  
     9     4    15 ar  
    10     4    16 ar  
    11     5    17 1   
    12     6     7 ar  
    13     6    15 ar  
    14     6    22 1   
    15     7     8 ar  
    16     7     9 ar  
    17     8    12 ar  
    18     8    16 ar  
    19     9    10 ar  
    20     9    23 1   
    21    10    11 ar  
    22    10    24 1   
    23    11    12 ar  
    24    11    25 1   
    25    12    18 1   
    26    13    17 1   
    27    13    26 1   
    28    13    27 1   
    29    13    28 1   
    30    14    18 1   
    31    14    29 1   
    32    14    30 1   
    33    14    31 1   
    34    16    32 1   
    35    17    33 1   
    36    17    34 1   
    37    18    35 1   
    38    18    36 1   
@<TRIPOS>SUBSTRUCTURE
     1 D5B         1 TEMP              0 ****  ****    0 ROOT
