@<TRIPOS>MOLECULE
D5C
   53    55     1     0     0
SMALL
bcc


@<TRIPOS>ATOM
      1 FBE        -10.3530     0.2460    -0.3660 f          1 D5C      -0.234300
      2 CBD         -9.1620    -0.3530    -0.4460 c3         1 D5C       0.720200
      3 FBF         -9.2040    -1.4170     0.3700 f          1 D5C      -0.234300
      4 FBG         -9.0500    -0.8370    -1.6920 f          1 D5C      -0.234300
      5 CBB         -8.0280     0.5610    -0.1020 ca         1 D5C      -0.196300
      6 CBC         -6.7350     0.0530    -0.1530 ca         1 D5C      -0.068000
      7 CBA         -8.2510     1.8830     0.2550 ca         1 D5C      -0.074000
      8 CAZ         -7.1660     2.6940     0.5600 ca         1 D5C      -0.136000
      9 CAY         -5.8780     2.1910     0.5120 ca         1 D5C      -0.089000
     10 CAX         -5.6440     0.8610     0.1550 cp         1 D5C      -0.042000
     11 CAU         -4.2720     0.3190     0.1100 cp         1 D5C      -0.021000
     12 CAV         -3.2110     1.0980    -0.3520 ca         1 D5C      -0.126500
     13 CAW         -1.9220     0.5920    -0.3870 ca         1 D5C      -0.091000
     14 CAT         -4.0040    -0.9860     0.5250 ca         1 D5C      -0.126500
     15 CAS         -2.7190    -1.4960     0.4780 ca         1 D5C      -0.091000
     16 CAR         -1.6600    -0.7090     0.0350 ca         1 D5C      -0.142600
     17 CAP         -0.2930    -1.3140    -0.0060 c          1 D5C       0.676700
     18 OAQ         -0.1400    -2.5220    -0.1340 o          1 D5C      -0.597100
     19 NAO          0.7380    -0.4650     0.1070 ns         1 D5C      -0.574900
     20 CAN          2.1180    -0.9090     0.0720 c3         1 D5C       0.111000
     21 CAL          3.0530     0.2740     0.2610 c3         1 D5C      -0.087400
     22 CAK          4.5210    -0.1130     0.1090 c3         1 D5C       0.171500
     23 NAM          4.8560    -1.1630     1.0530 n8         1 D5C      -0.889800
     24 CAJ          5.4020     1.1480     0.2250 c3         1 D5C      -0.069100
     25 CAD          6.8570     0.8540     0.0110 ca         1 D5C      -0.113300
     26 CAE          7.3890     0.6940    -1.2610 ca         1 D5C       0.150900
     27 FAG          6.5840     0.8470    -2.3230 f          1 D5C      -0.131900
     28 CAF          8.7140     0.3820    -1.4970 ca         1 D5C      -0.188000
     29 CAA          9.5480     0.2200    -0.4100 ca         1 D5C       0.127900
     30 FAH         10.8360    -0.0780    -0.5930 f          1 D5C      -0.114900
     31 CAB          9.0570     0.3690     0.8740 ca         1 D5C       0.085900
     32 FAI          9.8850     0.2100     1.9130 f          1 D5C      -0.119900
     33 CAC          7.7290     0.6780     1.0820 ca         1 D5C      -0.130000
     34 H1          -6.5660    -0.9740    -0.4510 ha         1 D5C       0.150000
     35 H2          -9.2500     2.2930     0.3020 ha         1 D5C       0.151000
     36 H3          -7.3320     3.7240     0.8450 ha         1 D5C       0.140000
     37 H4          -5.0470     2.8330     0.7740 ha         1 D5C       0.138000
     38 H5          -3.3920     2.1010    -0.7160 ha         1 D5C       0.137500
     39 H6          -1.1330     1.2200    -0.7810 ha         1 D5C       0.144000
     40 H7          -4.8040    -1.6090     0.9070 ha         1 D5C       0.137500
     41 H8          -2.5360    -2.5110     0.8040 ha         1 D5C       0.144000
     42 H9           0.5600     0.5000     0.3330 hn         1 D5C       0.311500
     43 H10          2.2950    -1.6550     0.8480 h1         1 D5C       0.064700
     44 H11          2.3230    -1.3910    -0.8880 h1         1 D5C       0.064700
     45 H12          2.8180     1.0500    -0.4740 hc         1 D5C       0.041700
     46 H13          2.8930     0.7180     1.2510 hc         1 D5C       0.041700
     47 H14          4.6540    -0.5270    -0.8960 h1         1 D5C       0.071700
     48 H15          5.7990    -1.4980     0.9000 hn         1 D5C       0.345300
     49 H16          4.8310    -0.7990     2.0000 hn         1 D5C       0.345300
     50 H18          5.0570     1.9030    -0.4860 hc         1 D5C       0.060200
     51 H19          5.2680     1.5760     1.2220 hc         1 D5C       0.060200
     52 H20          9.0910     0.2680    -2.5050 ha         1 D5C       0.175000
     53 H21          7.3700     0.7980     2.0970 ha         1 D5C       0.155000
@<TRIPOS>BOND
     1     1     2 1   
     2     2     3 1   
     3     2     4 1   
     4     2     5 1   
     5     5     6 ar  
     6     5     7 ar  
     7     6    10 ar  
     8     6    34 1   
     9     7     8 ar  
    10     7    35 1   
    11     8     9 ar  
    12     8    36 1   
    13     9    10 ar  
    14     9    37 1   
    15    10    11 1   
    16    11    12 ar  
    17    11    14 ar  
    18    12    13 ar  
    19    12    38 1   
    20    13    16 ar  
    21    13    39 1   
    22    14    15 ar  
    23    14    40 1   
    24    15    16 ar  
    25    15    41 1   
    26    16    17 1   
    27    17    18 2   
    28    17    19 1   
    29    19    20 1   
    30    19    42 1   
    31    20    21 1   
    32    20    43 1   
    33    20    44 1   
    34    21    22 1   
    35    21    45 1   
    36    21    46 1   
    37    22    23 1   
    38    22    24 1   
    39    22    47 1   
    40    23    48 1   
    41    23    49 1   
    42    24    25 1   
    43    24    50 1   
    44    24    51 1   
    45    25    26 ar  
    46    25    33 ar  
    47    26    27 1   
    48    26    28 ar  
    49    28    29 ar  
    50    28    52 1   
    51    29    30 1   
    52    29    31 ar  
    53    31    32 1   
    54    31    33 ar  
    55    33    53 1   
@<TRIPOS>SUBSTRUCTURE
     1 D5C         1 TEMP              0 ****  ****    0 ROOT
