@<TRIPOS>MOLECULE
D5C
   53    55     1     0     0
SMALL
No Charge or Current Charge


@<TRIPOS>ATOM
      1 FBE        -10.4550     0.2360    -0.7570 f          1 D5C      -0.113000
      2 CBD         -9.2120    -0.0330    -1.2190 c3         1 D5C       0.356300
      3 FBF         -9.0770    -1.3790    -1.1980 f          1 D5C      -0.113000
      4 FBG         -9.1820     0.3460    -2.5160 f          1 D5C      -0.113000
      5 CBB         -8.1170     0.6690    -0.4080 ca         1 D5C      -0.196300
      6 CBC         -6.8000     0.1580    -0.4010 ca         1 D5C      -0.050000
      7 CBA         -8.3960     1.8460     0.3190 ca         1 D5C      -0.056000
      8 CAZ         -7.3810     2.4860     1.0470 ca         1 D5C      -0.118000
      9 CAY         -6.0780     1.9630     1.0520 ca         1 D5C      -0.071000
     10 CAX         -5.7600     0.7890     0.3270 cp         1 D5C      -0.042000
     11 CAU         -4.3690     0.2320     0.3280 cp         1 D5C      -0.021000
     12 CAV         -3.2390     1.0830     0.3530 ca         1 D5C      -0.108500
     13 CAW         -1.9310     0.5660     0.3530 ca         1 D5C      -0.073000
     14 CAT         -4.1370    -1.1640     0.3040 ca         1 D5C      -0.108500
     15 CAS         -2.8330    -1.6860     0.3050 ca         1 D5C      -0.073000
     16 CAR         -1.7090    -0.8320     0.3290 ca         1 D5C      -0.142600
     17 CAP         -0.3160    -1.4310     0.3290 c          1 D5C       0.609700
     18 OAQ         -0.1250    -2.6400     0.3050 o          1 D5C      -0.597100
     19 NAO          0.7410    -0.5480     0.3580 ns         1 D5C      -0.507900
     20 CAN          2.1510    -0.9460     0.3610 c3         1 D5C       0.111000
     21 CAL          3.0860     0.2700     0.2020 c3         1 D5C      -0.087400
     22 CAK          4.5860    -0.1020     0.1260 c3         1 D5C       0.171500
     23 NAM          5.0220    -0.7660     1.3690 n8         1 D5C      -1.000200
     24 CAJ          5.4820     1.1280    -0.1650 c3         1 D5C      -0.069100
     25 CAD          6.9680     0.7850    -0.2950 ca         1 D5C      -0.113300
     26 CAE          7.4650     0.1280    -1.4440 ca         1 D5C       0.186000
     27 FAG          6.6300    -0.2090    -2.4530 f          1 D5C      -0.167000
     28 CAF          8.8290    -0.1810    -1.5590 ca         1 D5C      -0.170000
     29 CAA          9.7120     0.1670    -0.5260 ca         1 D5C       0.163000
     30 FAH         11.0260    -0.1320    -0.6420 f          1 D5C      -0.150000
     31 CAB          9.2310     0.8260     0.6220 ca         1 D5C       0.121000
     32 FAI         10.0780     1.1660     1.6200 f          1 D5C      -0.155000
     33 CAC          7.8650     1.1350     0.7370 ca         1 D5C      -0.112000
     34 H1          -6.5740    -0.7330    -0.9830 ha         1 D5C       0.132000
     35 H2          -9.3980     2.2720     0.3230 ha         1 D5C       0.133000
     36 H3          -7.6040     3.3890     1.6090 ha         1 D5C       0.122000
     37 H4          -5.3100     2.4690     1.6340 ha         1 D5C       0.120000
     38 H5          -3.3740     2.1620     0.3580 ha         1 D5C       0.119500
     39 H6          -1.1040     1.2710     0.3680 ha         1 D5C       0.126000
     40 H7          -4.9770    -1.8530     0.2990 ha         1 D5C       0.119500
     41 H8          -2.7000    -2.7660     0.2900 ha         1 D5C       0.126000
     42 H9           0.5180     0.4380     0.3800 hn         1 D5C       0.311500
     43 H10          2.3680    -1.4660     1.3030 h1         1 D5C       0.064700
     44 H11          2.3230    -1.6490    -0.4660 h1         1 D5C       0.064700
     45 H12          2.8100     0.8020    -0.7170 hc         1 D5C       0.041700
     46 H13          2.9200     0.9670     1.0330 hc         1 D5C       0.041700
     47 H14          4.7150    -0.8160    -0.7010 h1         1 D5C       0.071700
     48 H15          6.0370    -0.9110     1.3180 hn         1 D5C       0.400500
     49 H16          4.9180    -0.1080     2.1500 hn         1 D5C       0.400500
     50 H18          5.1370     1.6020    -1.0930 hc         1 D5C       0.060200
     51 H19          5.3300     1.8780     0.6210 hc         1 D5C       0.060200
     52 H20          9.2000    -0.6860    -2.4460 ha         1 D5C       0.157000
     53 H21          7.5080     1.6450     1.6290 ha         1 D5C       0.137000
@<TRIPOS>BOND
     1     1     2 1   
     2     2     3 1   
     3     2     4 1   
     4     2     5 1   
     5     5     6 ar  
     6     5     7 ar  
     7     6    10 ar  
     8     6    34 1   
     9     7     8 ar  
    10     7    35 1   
    11     8     9 ar  
    12     8    36 1   
    13     9    10 ar  
    14     9    37 1   
    15    10    11 1   
    16    11    12 ar  
    17    11    14 ar  
    18    12    13 ar  
    19    12    38 1   
    20    13    16 ar  
    21    13    39 1   
    22    14    15 ar  
    23    14    40 1   
    24    15    16 ar  
    25    15    41 1   
    26    16    17 1   
    27    17    18 2   
    28    17    19 1   
    29    19    20 1   
    30    19    42 1   
    31    20    21 1   
    32    20    43 1   
    33    20    44 1   
    34    21    22 1   
    35    21    45 1   
    36    21    46 1   
    37    22    23 1   
    38    22    24 1   
    39    22    47 1   
    40    23    48 1   
    41    23    49 1   
    42    24    25 1   
    43    24    50 1   
    44    24    51 1   
    45    25    26 ar  
    46    25    33 ar  
    47    26    27 1   
    48    26    28 ar  
    49    28    29 ar  
    50    28    52 1   
    51    29    30 1   
    52    29    31 ar  
    53    31    32 1   
    54    31    33 ar  
    55    33    53 1   
@<TRIPOS>SUBSTRUCTURE
     1 D5C         1 TEMP              0 ****  ****    0 ROOT
