@<TRIPOS>MOLECULE
D5E
   47    48     1     0     0
SMALL
bcc


@<TRIPOS>ATOM
      1 C4          -1.1590    -0.0290     0.0780 c6         1 D5E       0.134100
      2 C5          -2.2720    -1.0050    -0.3070 c6         1 D5E       0.081100
      3 O4           0.0550    -0.7090     0.3480 os         1 D5E      -0.430600
      4 C6          -3.5880    -0.2680    -0.5630 c6         1 D5E       0.155100
      5 N1          -5.2740     1.2040     0.4160 n8         1 D5E      -0.854800
      6 O5          -1.9730    -1.7340    -1.4840 oh         1 D5E      -0.607800
      7 O6          -4.5980    -1.1770    -0.9200 oh         1 D5E      -0.574800
      8 N3          -0.5460     1.6410     1.7700 n8         1 D5E      -0.881800
      9 C1          -4.0180     0.5160     0.6700 c6         1 D5E       0.158500
     10 C2          -2.8800     1.4440     1.0980 c6         1 D5E      -0.124400
     11 C3          -1.5730     0.7020     1.3530 c6         1 D5E       0.172500
     12 C10          0.9360    -0.9450    -0.7110 c6         1 D5E       0.344900
     13 C11          2.1150    -1.7550    -0.1690 c6         1 D5E       0.149500
     14 N2           1.6460    -2.9450     0.5160 n8         1 D5E      -0.866800
     15 C12          2.9460    -0.8870     0.7620 c6         1 D5E       0.153100
     16 O3           4.0680    -1.6360     1.1710 oh         1 D5E      -0.603800
     17 C7           3.3670     0.3900     0.0450 c6         1 D5E       0.077100
     18 O1           4.0430     1.2010     0.9840 oh         1 D5E      -0.600800
     19 C8           2.1460     1.1120    -0.5330 c6         1 D5E       0.116100
     20 O2           1.3800     0.2250    -1.3320 os         1 D5E      -0.413600
     21 C9           2.5590     2.2650    -1.4210 c3         1 D5E       0.148400
     22 O7           1.4130     2.9630    -1.8430 oh         1 D5E      -0.575800
     23 H1          -1.0150     0.7130    -0.7200 h1         1 D5E       0.085700
     24 H2          -2.4270    -1.7000     0.5310 h1         1 D5E       0.051700
     25 H3          -3.4130     0.4570    -1.3800 h1         1 D5E       0.041700
     26 H4          -5.5430     1.7160     1.2480 hn         1 D5E       0.335300
     27 H5          -5.1290     1.9090    -0.2990 hn         1 D5E       0.335300
     28 H7          -1.6360    -2.6000    -1.2390 ho         1 D5E       0.411000
     29 H8          -4.2270    -1.7530    -1.5970 ho         1 D5E       0.411000
     30 H9          -0.8750     2.1430     2.5870 hn         1 D5E       0.344800
     31 H10          0.2700     1.1310     2.0830 hn         1 D5E       0.344800
     32 H12         -4.1980    -0.2040     1.4770 h1         1 D5E       0.069700
     33 H13         -2.7170     2.2050     0.3260 hc         1 D5E       0.052700
     34 H14         -3.1790     1.9740     2.0080 hc         1 D5E       0.052700
     35 H15         -1.7660    -0.0650     2.1220 h1         1 D5E       0.026700
     36 H16          0.4490    -1.5050    -1.5150 h2         1 D5E       0.075700
     37 H17          2.7360    -1.9900    -1.0490 h1         1 D5E       0.037700
     38 H18          1.0790    -3.4960    -0.1180 hn         1 D5E       0.345800
     39 H19          2.4400    -3.5310     0.7420 hn         1 D5E       0.345800
     40 H21          2.3310    -0.6110     1.6320 h1         1 D5E       0.071700
     41 H22          4.5890    -1.0850     1.7650 ho         1 D5E       0.420000
     42 H23          4.0370     0.1120    -0.7820 h1         1 D5E       0.046700
     43 H24          4.7380     1.6900     0.5370 ho         1 D5E       0.410000
     44 H25          1.5370     1.5060     0.2900 h1         1 D5E       0.089700
     45 H26          3.2310     2.9150    -0.8490 h1         1 D5E       0.020200
     46 H27          3.1360     1.8730    -2.2710 h1         1 D5E       0.020200
     47 H28          1.7040     3.7370    -2.3340 ho         1 D5E       0.401000
@<TRIPOS>BOND
     1     1     2 1   
     2     1     3 1   
     3     1    11 1   
     4     1    23 1   
     5     2     4 1   
     6     2     6 1   
     7     2    24 1   
     8     3    12 1   
     9     4     7 1   
    10     4     9 1   
    11     4    25 1   
    12     5     9 1   
    13     5    26 1   
    14     5    27 1   
    15     6    28 1   
    16     7    29 1   
    17     8    11 1   
    18     8    30 1   
    19     8    31 1   
    20     9    10 1   
    21     9    32 1   
    22    10    11 1   
    23    10    33 1   
    24    10    34 1   
    25    11    35 1   
    26    12    13 1   
    27    12    20 1   
    28    12    36 1   
    29    13    14 1   
    30    13    15 1   
    31    13    37 1   
    32    14    38 1   
    33    14    39 1   
    34    15    16 1   
    35    15    17 1   
    36    15    40 1   
    37    16    41 1   
    38    17    18 1   
    39    17    19 1   
    40    17    42 1   
    41    18    43 1   
    42    19    20 1   
    43    19    21 1   
    44    19    44 1   
    45    21    22 1   
    46    21    45 1   
    47    21    46 1   
    48    22    47 1   
@<TRIPOS>SUBSTRUCTURE
     1 D5E         1 TEMP              0 ****  ****    0 ROOT
