@<TRIPOS>MOLECULE
D5E
   47    48     1     0     0
SMALL
No Charge or Current Charge


@<TRIPOS>ATOM
      1 C4          -1.3700     0.3070    -0.0010 c6         1 D5E       0.157300
      2 C5          -2.1380    -1.0630    -0.0210 c6         1 D5E       0.104300
      3 O4           0.0550     0.1480     0.2460 os         1 D5E      -0.477000
      4 C6          -3.6550    -0.8270    -0.2880 c6         1 D5E       0.178300
      5 N1          -5.7210     0.3930     0.5910 n8         1 D5E      -0.965200
      6 O5          -1.6150    -1.9990    -0.9940 oh         1 D5E      -0.730000
      7 O6          -4.3100    -2.1050    -0.3330 oh         1 D5E      -0.637000
      8 N3          -1.2970     2.5480     1.1420 n8         1 D5E      -0.992200
      9 C1          -4.2730     0.1190     0.8050 c6         1 D5E       0.158500
     10 C2          -3.5070     1.4640     0.8590 c6         1 D5E      -0.124400
     11 C3          -1.9910     1.2420     1.0900 c6         1 D5E       0.172500
     12 C10          0.8550    -0.2460    -0.8920 c6         1 D5E       0.391300
     13 C11          1.6900    -1.5440    -0.5910 c6         1 D5E       0.149500
     14 N2           0.8540    -2.7070    -0.1260 n8         1 D5E      -0.977200
     15 C12          2.8240    -1.2120     0.4300 c6         1 D5E       0.176300
     16 O3           3.6790    -2.3490     0.6570 oh         1 D5E      -0.666000
     17 C7           3.6770    -0.0050    -0.0580 c6         1 D5E       0.100300
     18 O1           4.7050     0.2880     0.9160 oh         1 D5E      -0.723000
     19 C8           2.7300     1.2140    -0.3060 c6         1 D5E       0.139300
     20 O2           1.7080     0.8540    -1.2750 os         1 D5E      -0.460000
     21 C9           3.4900     2.4720    -0.8470 c3         1 D5E       0.171600
     22 O7           2.6220     3.5830    -1.1360 oh         1 D5E      -0.698000
     23 H1          -1.5030     0.8030    -0.9750 h1         1 D5E       0.085700
     24 H2          -2.0430    -1.5030     0.9840 h1         1 D5E       0.051700
     25 H3          -3.7540    -0.3320    -1.2670 h1         1 D5E       0.041700
     26 H4          -6.0150     1.1450     1.2240 hn         1 D5E       0.390500
     27 H5          -5.8500     0.7950    -0.3440 hn         1 D5E       0.390500
     28 H7          -0.7030    -2.2760    -0.6720 ho         1 D5E       0.510000
     29 H8          -3.6360    -2.6900    -0.7510 ho         1 D5E       0.450000
     30 H9          -1.3290     2.9010     2.1040 hn         1 D5E       0.400000
     31 H10         -0.2990     2.3620     0.9860 hn         1 D5E       0.400000
     32 H12         -4.1740    -0.3730     1.7870 h1         1 D5E       0.069700
     33 H13         -3.6590     2.0190    -0.0780 hc         1 D5E       0.052700
     34 H14         -3.9130     2.0910     1.6660 hc         1 D5E       0.052700
     35 H15         -1.8420     0.7630     2.0700 h1         1 D5E       0.026700
     36 H16          0.1960    -0.4670    -1.7450 h2         1 D5E       0.075700
     37 H17          2.1500    -1.8540    -1.5410 h1         1 D5E       0.037700
     38 H18          1.4420    -3.5480    -0.2040 hn         1 D5E       0.401000
     39 H19          0.7530    -2.6240     0.8950 hn         1 D5E       0.401000
     40 H21          2.3470    -0.9170     1.3780 h1         1 D5E       0.071700
     41 H22          4.4880    -1.9650     1.0660 ho         1 D5E       0.459000
     42 H23          4.1400    -0.2790    -1.0190 h1         1 D5E       0.046700
     43 H24          5.4410     0.7510     0.4480 ho         1 D5E       0.509000
     44 H25          2.2450     1.4960     0.6400 h1         1 D5E       0.089700
     45 H26          4.2370     2.7740    -0.1010 h1         1 D5E       0.020200
     46 H27          4.0360     2.1780    -1.7550 h1         1 D5E       0.020200
     47 H28          3.1800     4.2860    -1.5420 ho         1 D5E       0.500000
@<TRIPOS>BOND
     1     1     2 1   
     2     1     3 1   
     3     1    11 1   
     4     1    23 1   
     5     2     4 1   
     6     2     6 1   
     7     2    24 1   
     8     3    12 1   
     9     4     7 1   
    10     4     9 1   
    11     4    25 1   
    12     5     9 1   
    13     5    26 1   
    14     5    27 1   
    15     6    28 1   
    16     7    29 1   
    17     8    11 1   
    18     8    30 1   
    19     8    31 1   
    20     9    10 1   
    21     9    32 1   
    22    10    11 1   
    23    10    33 1   
    24    10    34 1   
    25    11    35 1   
    26    12    13 1   
    27    12    20 1   
    28    12    36 1   
    29    13    14 1   
    30    13    15 1   
    31    13    37 1   
    32    14    38 1   
    33    14    39 1   
    34    15    16 1   
    35    15    17 1   
    36    15    40 1   
    37    16    41 1   
    38    17    18 1   
    39    17    19 1   
    40    17    42 1   
    41    18    43 1   
    42    19    20 1   
    43    19    21 1   
    44    19    44 1   
    45    21    22 1   
    46    21    45 1   
    47    21    46 1   
    48    22    47 1   
@<TRIPOS>SUBSTRUCTURE
     1 D5E         1 TEMP              0 ****  ****    0 ROOT
