@<TRIPOS>MOLECULE
D5F
   41    43     1     0     0
SMALL
No Charge or Current Charge


@<TRIPOS>ATOM
      1 C11         -2.6800     0.4020     0.3680 c6         1 D5F      -0.053700
      2 C12         -5.1530     0.8010    -0.2970 c6         1 D5F      -0.056700
      3 C13         -5.1660    -0.5840    -1.0020 c6         1 D5F      -0.071400
      4 C1           3.7020    -0.8850     0.0630 ca         1 D5F       0.274100
      5 C10         -1.6630     0.4220     1.5480 c3         1 D5F      -0.037200
      6 C2           4.5400     0.0640    -0.5300 ca         1 D5F      -0.292000
      7 C3           4.0700     1.3580    -0.7630 ca         1 D5F       0.228100
      8 C4           2.7640     1.6990    -0.4010 ca         1 D5F      -0.207000
      9 C5           1.9250     0.7450     0.1950 ca         1 D5F       0.096200
     10 C6           0.5800     1.0970     0.5620 cc         1 D5F      -0.276200
     11 C7          -0.2350     0.1500     1.1440 cd         1 D5F       0.144900
     12 C8           1.4560    -1.5340     1.0710 c          1 D5F       0.699700
     13 C9           2.3830    -0.5470     0.4310 ca         1 D5F      -0.352600
     14 C14         -3.7580    -1.0020    -1.4960 c6         1 D5F      -0.073400
     15 C15         -2.7270    -0.9830    -0.3400 c6         1 D5F      -0.071400
     16 C16         -4.9560     1.9780    -1.2980 c3         1 D5F      -0.087100
     17 C17         -4.1030     0.8120     0.8500 c6         1 D5F      -0.068400
     18 O2           4.8780     2.2870    -1.3400 oh         1 D5F      -0.524100
     19 O3           0.1830    -1.1350     1.4150 os         1 D5F      -0.322200
     20 O4           1.8240    -2.6820     1.2910 o          1 D5F      -0.547000
     21 H1          -2.3230     1.1510    -0.3530 hc         1 D5F       0.050700
     22 H2          -6.1440     0.9620     0.1500 hc         1 D5F       0.044700
     23 H3          -5.5410    -1.3430    -0.3020 hc         1 D5F       0.039700
     24 H4          -5.8700    -0.5730    -1.8460 hc         1 D5F       0.039700
     25 H5          -1.7030     1.3980     2.0460 hc         1 D5F       0.067700
     26 H6          -1.9720    -0.3040     2.3100 hc         1 D5F       0.067700
     27 H7           5.5530    -0.2160    -0.8060 ha         1 D5F       0.135000
     28 H8           2.4020     2.7070    -0.5850 ha         1 D5F       0.138000
     29 H9           0.1910     2.0940     0.3780 ha         1 D5F       0.205000
     30 H10         -3.8040    -2.0100    -1.9320 hc         1 D5F       0.040200
     31 H11         -3.4250    -0.3350    -2.3030 hc         1 D5F       0.040200
     32 H12         -1.7370    -1.2410    -0.7390 hc         1 D5F       0.046700
     33 H13         -2.9810    -1.7650     0.3890 hc         1 D5F       0.046700
     34 H14         -5.7440     1.9800    -2.0600 hc         1 D5F       0.032033
     35 H15         -4.9990     2.9440    -0.7800 hc         1 D5F       0.032033
     36 H16         -3.9940     1.9260    -1.8200 hc         1 D5F       0.032033
     37 H17         -4.4310     0.1220     1.6400 hc         1 D5F       0.038700
     38 H18         -4.0710     1.8080     1.3120 hc         1 D5F       0.038700
     39 H19          3.4640    -2.6480     0.6940 ho         1 D5F       0.517000
     40 H20          5.7440     1.8640    -1.5190 ho         1 D5F       0.475000
     41 O1           4.1950    -2.1320     0.2730 oh         1 D5F      -0.534100
@<TRIPOS>BOND
     1     1     5 1   
     2     1    15 1   
     3     1    17 1   
     4     1    21 1   
     5     2     3 1   
     6     2    16 1   
     7     2    17 1   
     8     2    22 1   
     9     3    14 1   
    10     3    23 1   
    11     3    24 1   
    12     4     6 ar  
    13     4    13 ar  
    14     4    41 1   
    15     5    11 1   
    16     5    25 1   
    17     5    26 1   
    18     6     7 ar  
    19     6    27 1   
    20     7     8 ar  
    21     7    18 1   
    22     8     9 ar  
    23     8    28 1   
    24     9    10 1   
    25     9    13 ar  
    26    10    11 2   
    27    10    29 1   
    28    11    19 1   
    29    12    13 1   
    30    12    19 1   
    31    12    20 2   
    32    14    15 1   
    33    14    30 1   
    34    14    31 1   
    35    15    32 1   
    36    15    33 1   
    37    16    34 1   
    38    16    35 1   
    39    16    36 1   
    40    17    37 1   
    41    17    38 1   
    42    18    40 1   
    43    39    41 1   
@<TRIPOS>SUBSTRUCTURE
     1 D5F         1 TEMP              0 ****  ****    0 ROOT
