@<TRIPOS>MOLECULE
D5F
   41    43     1     0     0
SMALL
bcc


@<TRIPOS>ATOM
      1 C11         -2.6590     0.4240     0.3020 c6         1 D5F      -0.053700
      2 C12         -5.1290     0.7470    -0.2750 c6         1 D5F      -0.056700
      3 C13         -5.1390    -0.6520    -0.8960 c6         1 D5F      -0.071400
      4 C1           3.6070    -0.9310    -0.0140 ca         1 D5F       0.274100
      5 C10         -1.6540     0.5440     1.4580 c3         1 D5F      -0.037200
      6 C2           4.5160    -0.0010    -0.4910 ca         1 D5F      -0.310000
      7 C3           4.1450     1.3390    -0.6090 ca         1 D5F       0.228100
      8 C4           2.8670     1.7700    -0.2550 ca         1 D5F      -0.225000
      9 C5           1.9520     0.8470     0.2220 ca         1 D5F       0.096200
     10 C6           0.6170     1.2140     0.6080 cc         1 D5F      -0.226200
     11 C7          -0.2400     0.2920     1.0640 cd         1 D5F       0.144900
     12 C8           1.3550    -1.4630     0.8470 c          1 D5F       0.775200
     13 C9           2.3070    -0.5120     0.3500 ca         1 D5F      -0.352600
     14 C14         -3.7650    -1.0700    -1.4070 c6         1 D5F      -0.073400
     15 C15         -2.7030    -0.9730    -0.3160 c6         1 D5F      -0.071400
     16 C16         -4.9840     1.8490    -1.3210 c3         1 D5F      -0.087100
     17 C17         -4.0460     0.8280     0.8040 c6         1 D5F      -0.068400
     18 O2           4.9950     2.2640    -1.0640 oh         1 D5F      -0.485100
     19 O3           0.1320    -1.0130     1.1820 os         1 D5F      -0.322200
     20 O4           1.5620    -2.6570     0.9960 o          1 D5F      -0.622500
     21 H1          -2.3480     1.1320    -0.4760 hc         1 D5F       0.050700
     22 H2          -6.0950     0.8990     0.2190 hc         1 D5F       0.044700
     23 H3          -5.4670    -1.3700    -0.1360 hc         1 D5F       0.039700
     24 H4          -5.8750    -0.7000    -1.7040 hc         1 D5F       0.039700
     25 H5          -1.7120     1.5560     1.8640 hc         1 D5F       0.067700
     26 H6          -1.9400    -0.1380     2.2650 hc         1 D5F       0.067700
     27 H7           5.5120    -0.3260    -0.7720 ha         1 D5F       0.153000
     28 H8           2.5980     2.8140    -0.3530 ha         1 D5F       0.156000
     29 H9           0.2920     2.2430     0.5330 ha         1 D5F       0.155000
     30 H10         -3.8060    -2.0930    -1.7920 hc         1 D5F       0.040200
     31 H11         -3.4690    -0.4430    -2.2550 hc         1 D5F       0.040200
     32 H12         -1.7290    -1.2400    -0.7340 hc         1 D5F       0.046700
     33 H13         -2.9150    -1.7070     0.4710 hc         1 D5F       0.046700
     34 H14         -5.7920     1.7980    -2.0530 hc         1 D5F       0.032033
     35 H15         -5.0220     2.8350    -0.8540 hc         1 D5F       0.032033
     36 H16         -4.0430     1.7890    -1.8700 hc         1 D5F       0.032033
     37 H17         -4.3230     0.1680     1.6350 hc         1 D5F       0.038700
     38 H18         -4.0080     1.8410     1.2170 hc         1 D5F       0.038700
     39 H19          3.2420    -2.7250     0.4350 ho         1 D5F       0.478000
     40 H20          5.8460     1.8710    -1.2930 ho         1 D5F       0.436000
     41 O1           3.9920    -2.2000     0.0860 oh         1 D5F      -0.495100
@<TRIPOS>BOND
     1     1     5 1   
     2     1    15 1   
     3     1    17 1   
     4     1    21 1   
     5     2     3 1   
     6     2    16 1   
     7     2    17 1   
     8     2    22 1   
     9     3    14 1   
    10     3    23 1   
    11     3    24 1   
    12     4     6 ar  
    13     4    13 ar  
    14     4    41 1   
    15     5    11 1   
    16     5    25 1   
    17     5    26 1   
    18     6     7 ar  
    19     6    27 1   
    20     7     8 ar  
    21     7    18 1   
    22     8     9 ar  
    23     8    28 1   
    24     9    10 1   
    25     9    13 ar  
    26    10    11 2   
    27    10    29 1   
    28    11    19 1   
    29    12    13 1   
    30    12    19 1   
    31    12    20 2   
    32    14    15 1   
    33    14    30 1   
    34    14    31 1   
    35    15    32 1   
    36    15    33 1   
    37    16    34 1   
    38    16    35 1   
    39    16    36 1   
    40    17    37 1   
    41    17    38 1   
    42    18    40 1   
    43    39    41 1   
@<TRIPOS>SUBSTRUCTURE
     1 D5F         1 TEMP              0 ****  ****    0 ROOT
