@<TRIPOS>MOLECULE
D5G
   49    50     1     0     0
SMALL
No Charge or Current Charge


@<TRIPOS>ATOM
      1 CAK          5.2140     0.7070    -1.0920 ca         1 D5G      -0.107000
      2 CAI          6.5990     0.8690    -1.2770 ca         1 D5G      -0.098000
      3 CAH          7.4490     0.9930    -0.1660 ca         1 D5G      -0.111000
      4 CAJ          6.9110     0.9630     1.1310 ca         1 D5G      -0.098000
      5 CAL          5.5260     0.8030     1.3150 ca         1 D5G      -0.107000
      6 CAV          4.6690     0.6590     0.2080 ca         1 D5G       0.056600
      7 NAP          3.2790     0.5180     0.4500 ns         1 D5G      -0.369100
      8 CAU          2.2530    -0.0560    -0.2530 cs         1 D5G       0.484400
      9 SAG          2.4180    -0.9680    -1.6470 s          1 D5G      -0.661400
     10 N            1.0500     0.1590     0.3590 ns         1 D5G      -0.450900
     11 CA          -0.2680    -0.3580    -0.0720 c3         1 D5G       0.040700
     12 CB          -0.4430    -1.8200     0.4390 c3         1 D5G      -0.092400
     13 CG          -1.7210    -2.5740    -0.0260 c3         1 D5G      -0.056700
     14 CD2         -1.8010    -2.7250    -1.5640 c3         1 D5G      -0.089600
     15 CD1         -1.8200    -3.9560     0.6590 c3         1 D5G      -0.089600
     16 C           -1.3850     0.5930     0.4490 c          1 D5G       0.592100
     17 O           -1.2390     1.2960     1.4430 o          1 D5G      -0.611100
     18 NAQ         -2.5460     0.6090    -0.3050 ns         1 D5G      -0.487900
     19 CAZ         -3.6630     1.4580     0.1410 c5         1 D5G       0.076700
     20 CAX         -4.3810     0.7080     1.2890 c5         1 D5G       0.142600
     21 OAF         -5.6960     1.2890     1.2130 os         1 D5G      -0.478000
     22 CAN         -4.7420     1.3790    -0.9780 c5         1 D5G      -0.124400
     23 CAM         -6.0780     1.2980    -0.1700 c5         1 D5G       0.382300
     24 OAE         -6.7690     0.0950    -0.4360 oh         1 D5G      -0.667000
     25 HAK          4.5750     0.6430    -1.9660 ha         1 D5G       0.125000
     26 HAI          7.0120     0.9050    -2.2830 ha         1 D5G       0.117500
     27 HAH          8.5200     1.1180    -0.3090 ha         1 D5G       0.116000
     28 HAJ          7.5670     1.0660     1.9940 ha         1 D5G       0.117500
     29 HAL          5.1220     0.7820     2.3250 ha         1 D5G       0.125000
     30 HAP          2.9910     0.9460     1.3200 hn         1 D5G       0.310500
     31 HN           1.0510     0.7400     1.1910 hn         1 D5G       0.323500
     32 HA          -0.3050    -0.3370    -1.1680 h1         1 D5G       0.106700
     33 HB1         -0.4240    -1.8020     1.5360 hc         1 D5G       0.063200
     34 HB2          0.4310    -2.4080     0.1320 hc         1 D5G       0.063200
     35 HG          -2.5990    -2.0050     0.3020 hc         1 D5G       0.045700
     36 HD21        -1.8480    -1.7510    -2.0640 hc         1 D5G       0.036367
     37 HD22        -0.9280    -3.2660    -1.9480 hc         1 D5G       0.036367
     38 HD23        -2.7000    -3.2840    -1.8510 hc         1 D5G       0.036367
     39 HD11        -0.9740    -4.5950     0.3770 hc         1 D5G       0.036367
     40 HD12        -1.8200    -3.8500     1.7510 hc         1 D5G       0.036367
     41 HD13        -2.7460    -4.4670     0.3710 hc         1 D5G       0.036367
     42 HAQ         -2.5820     0.0140    -1.1240 hn         1 D5G       0.326500
     43 HAZ         -3.3880     2.4880     0.4100 h1         1 D5G       0.081700
     44 HAX1        -4.4470    -0.3750     1.1150 h1         1 D5G       0.063200
     45 HAX2        -3.9350     0.8950     2.2740 h1         1 D5G       0.063200
     46 HAN1        -4.7150     2.2600    -1.6280 hc         1 D5G       0.071700
     47 HAN2        -4.6280     0.5030    -1.6270 hc         1 D5G       0.071700
     48 HAM         -6.7250     2.1620    -0.3730 h2         1 D5G       0.055700
     49 HAE         -7.3860    -0.0050     0.3190 ho         1 D5G       0.459000
@<TRIPOS>BOND
     1     1     2 ar  
     2     1     6 ar  
     3     1    25 1   
     4     2     3 ar  
     5     2    26 1   
     6     3     4 ar  
     7     3    27 1   
     8     4     5 ar  
     9     4    28 1   
    10     5     6 ar  
    11     5    29 1   
    12     6     7 1   
    13     7     8 1   
    14     7    30 1   
    15     8     9 2   
    16     8    10 1   
    17    10    11 1   
    18    10    31 1   
    19    11    12 1   
    20    11    16 1   
    21    11    32 1   
    22    12    13 1   
    23    12    33 1   
    24    12    34 1   
    25    13    14 1   
    26    13    15 1   
    27    13    35 1   
    28    14    36 1   
    29    14    37 1   
    30    14    38 1   
    31    15    39 1   
    32    15    40 1   
    33    15    41 1   
    34    16    17 2   
    35    16    18 1   
    36    18    19 1   
    37    18    42 1   
    38    19    20 1   
    39    19    22 1   
    40    19    43 1   
    41    20    21 1   
    42    20    44 1   
    43    20    45 1   
    44    21    23 1   
    45    22    23 1   
    46    22    46 1   
    47    22    47 1   
    48    23    24 1   
    49    23    48 1   
    50    24    49 1   
@<TRIPOS>SUBSTRUCTURE
     1 D5G         1 TEMP              0 ****  ****    0 ROOT
