@<TRIPOS>MOLECULE
D5G
   49    50     1     0     0
SMALL
abcg2


@<TRIPOS>ATOM
      1 CAK          4.7990     1.3050    -1.0790 ca         1 D5G      -0.107000
      2 CAI          6.1280     1.4590    -1.4440 ca         1 D5G      -0.098000
      3 CAH          7.1490     1.1080    -0.5680 ca         1 D5G      -0.111000
      4 CAJ          6.8310     0.5990     0.6830 ca         1 D5G      -0.098000
      5 CAL          5.5030     0.4250     1.0490 ca         1 D5G      -0.107000
      6 CAV          4.4840     0.7730     0.1680 ca         1 D5G       0.056600
      7 NAP          3.1520     0.6440     0.6050 ns         1 D5G      -0.369100
      8 CAU          2.1310     0.0370    -0.0430 cs         1 D5G       0.484400
      9 SAG          2.3050    -0.7350    -1.5240 s          1 D5G      -0.661400
     10 N            0.9630     0.0950     0.6090 ns         1 D5G      -0.450900
     11 CA          -0.2570    -0.5490     0.1770 c3         1 D5G       0.040700
     12 CB          -0.3380    -1.9840     0.7080 c3         1 D5G      -0.092400
     13 CG          -1.5810    -2.7780     0.3020 c3         1 D5G      -0.056700
     14 CD2         -1.6870    -2.9460    -1.2100 c3         1 D5G      -0.089600
     15 CD1         -1.5530    -4.1410     0.9870 c3         1 D5G      -0.089600
     16 C           -1.4170     0.2870     0.7050 c          1 D5G       0.592100
     17 O           -1.4360     0.6800     1.8620 o          1 D5G      -0.611100
     18 NAQ         -2.3990     0.5250    -0.1720 ns         1 D5G      -0.487900
     19 CAZ         -3.5960     1.2570     0.1680 c5         1 D5G       0.076700
     20 CAX         -4.6160     0.4660     0.9860 c5         1 D5G       0.142600
     21 OAF         -5.8190     1.1800     0.7930 os         1 D5G      -0.478000
     22 CAN         -4.4260     1.6140    -1.0590 c5         1 D5G      -0.124400
     23 CAM         -5.8550     1.7090    -0.5200 c5         1 D5G       0.382300
     24 OAE         -6.7050     0.9900    -1.3520 oh         1 D5G      -0.667000
     25 HAK          4.0120     1.5990    -1.7580 ha         1 D5G       0.125000
     26 HAI          6.3680     1.8720    -2.4150 ha         1 D5G       0.117500
     27 HAH          8.1830     1.2370    -0.8590 ha         1 D5G       0.116000
     28 HAJ          7.6160     0.3270     1.3770 ha         1 D5G       0.117500
     29 HAL          5.2550     0.0150     2.0200 ha         1 D5G       0.125000
     30 HAP          2.9840     0.9320     1.5590 hn         1 D5G       0.310500
     31 HN           0.9360     0.5150     1.5280 hn         1 D5G       0.323500
     32 HA          -0.2490    -0.5560    -0.9130 h1         1 D5G       0.106700
     33 HB1         -0.2640    -1.9540     1.7990 hc         1 D5G       0.063200
     34 HB2          0.5520    -2.5060     0.3430 hc         1 D5G       0.063200
     35 HG          -2.4740    -2.2520     0.6570 hc         1 D5G       0.045700
     36 HD21        -1.8310    -2.0010    -1.7350 hc         1 D5G       0.036367
     37 HD22        -0.7810    -3.4070    -1.6120 hc         1 D5G       0.036367
     38 HD23        -2.5300    -3.5860    -1.4720 hc         1 D5G       0.036367
     39 HD11        -0.6900    -4.7260     0.6590 hc         1 D5G       0.036367
     40 HD12        -1.4920    -4.0400     2.0720 hc         1 D5G       0.036367
     41 HD13        -2.4500    -4.7170     0.7550 hc         1 D5G       0.036367
     42 HAQ         -2.2910     0.2050    -1.1210 hn         1 D5G       0.326500
     43 HAZ         -3.3180     2.1620     0.7140 h1         1 D5G       0.081700
     44 HAX1        -4.6800    -0.5660     0.6130 h1         1 D5G       0.063200
     45 HAX2        -4.3910     0.4350     2.0520 h1         1 D5G       0.063200
     46 HAN1        -4.1040     2.5340    -1.5430 hc         1 D5G       0.071700
     47 HAN2        -4.3740     0.8070    -1.7960 hc         1 D5G       0.071700
     48 HAM         -6.1960     2.7460    -0.4250 h2         1 D5G       0.055700
     49 HAE         -7.6170     1.2200    -1.1440 ho         1 D5G       0.459000
@<TRIPOS>BOND
     1     1     2 ar  
     2     1     6 ar  
     3     1    25 1   
     4     2     3 ar  
     5     2    26 1   
     6     3     4 ar  
     7     3    27 1   
     8     4     5 ar  
     9     4    28 1   
    10     5     6 ar  
    11     5    29 1   
    12     6     7 1   
    13     7     8 1   
    14     7    30 1   
    15     8     9 2   
    16     8    10 1   
    17    10    11 1   
    18    10    31 1   
    19    11    12 1   
    20    11    16 1   
    21    11    32 1   
    22    12    13 1   
    23    12    33 1   
    24    12    34 1   
    25    13    14 1   
    26    13    15 1   
    27    13    35 1   
    28    14    36 1   
    29    14    37 1   
    30    14    38 1   
    31    15    39 1   
    32    15    40 1   
    33    15    41 1   
    34    16    17 2   
    35    16    18 1   
    36    18    19 1   
    37    18    42 1   
    38    19    20 1   
    39    19    22 1   
    40    19    43 1   
    41    20    21 1   
    42    20    44 1   
    43    20    45 1   
    44    21    23 1   
    45    22    23 1   
    46    22    46 1   
    47    22    47 1   
    48    23    24 1   
    49    23    48 1   
    50    24    49 1   
@<TRIPOS>SUBSTRUCTURE
     1 D5G         1 TEMP              0 ****  ****    0 ROOT
