@<TRIPOS>MOLECULE
D5H
   43    45     1     0     0
SMALL
abcg2


@<TRIPOS>ATOM
      1 F            0.7620     2.1350    -0.6540 f          1 D5H      -0.187000
      2 C9          -0.0360     1.0570    -0.5320 ca         1 D5H       0.093000
      3 C8          -1.3970     1.2420    -0.5200 ca         1 D5H      -0.107000
      4 C7          -2.2440     0.1410    -0.3820 cp         1 D5H      -0.086000
      5 C5          -3.7090     0.3170    -0.3620 cp         1 D5H       0.032000
      6 C4          -4.3220     1.2880    -1.1600 ca         1 D5H      -0.144000
      7 C3          -5.6970     1.4410    -1.1220 ca         1 D5H      -0.079000
      8 C2          -6.4900     0.6450    -0.3030 ca         1 D5H      -0.210000
      9 C1          -5.8840    -0.3240     0.4920 ca         1 D5H       0.135100
     10 O           -6.5480    -1.1430     1.3300 os         1 D5H      -0.343100
     11 C           -7.9530    -1.0190     1.4250 c3         1 D5H       0.152900
     12 C6          -4.4980    -0.4810     0.4570 ca         1 D5H      -0.140000
     13 C12         -1.6570    -1.1160    -0.2660 ca         1 D5H      -0.080000
     14 C11         -0.2810    -1.2900    -0.2830 ca         1 D5H      -0.134000
     15 C10          0.5730    -0.1940    -0.4160 ca         1 D5H       0.008000
     16 N            1.9600    -0.2460    -0.4600 ns         1 D5H      -0.117000
     17 C13          2.7790    -1.3020    -0.2060 c          1 D5H       0.684300
     18 O1           2.3910    -2.4400    -0.0110 o          1 D5H      -0.605100
     19 C14          4.2230    -0.9780    -0.3300 ce         1 D5H      -0.257400
     20 C15          4.9810    -0.3350     0.5610 cf         1 D5H      -0.096400
     21 C19          4.5080     0.1980     1.8900 c          1 D5H       0.704200
     22 O3           3.3320    -0.0660     2.2110 o          1 D5H      -0.710000
     23 O2           5.3420     0.8490     2.5500 o          1 D5H      -0.710000
     24 C18          5.0210    -1.4900    -1.5010 c5         1 D5H      -0.025200
     25 C17          6.3470    -0.7250    -1.3620 c5         1 D5H      -0.086400
     26 C16          6.4140    -0.2860     0.1090 c5         1 D5H      -0.045200
     27 H1          -1.7880     2.2490    -0.5970 ha         1 D5H       0.120000
     28 H2          -3.7290     1.9060    -1.8220 ha         1 D5H       0.117000
     29 H3          -6.1710     2.1890    -1.7440 ha         1 D5H       0.102000
     30 H4          -7.5610     0.7980    -0.2980 ha         1 D5H       0.107000
     31 H5          -8.2540    -0.0240     1.7630 h1         1 D5H       0.035033
     32 H6          -8.4480    -1.2330     0.4740 h1         1 D5H       0.035033
     33 H7          -8.2780    -1.7510     2.1610 h1         1 D5H       0.035033
     34 H8          -4.0440    -1.2240     1.1010 ha         1 D5H       0.133000
     35 H9          -2.2810    -1.9960    -0.1810 ha         1 D5H       0.109000
     36 H10          0.1240    -2.2850    -0.2020 ha         1 D5H       0.153000
     37 H11          2.4320     0.6400    -0.5590 hn         1 D5H       0.174000
     38 H13          5.1560    -2.5740    -1.4170 hc         1 D5H       0.033700
     39 H14          4.5310    -1.3120    -2.4620 hc         1 D5H       0.033700
     40 H15          7.2070    -1.3210    -1.6670 hc         1 D5H       0.025200
     41 H16          6.3220     0.1570    -2.0050 hc         1 D5H       0.025200
     42 H17          6.8550     0.7040     0.2350 hc         1 D5H       0.057200
     43 H18          7.0210    -0.9690     0.7120 hc         1 D5H       0.057200
@<TRIPOS>BOND
     1     1     2 1   
     2     2     3 ar  
     3     2    15 ar  
     4     3     4 ar  
     5     3    27 1   
     6     4     5 1   
     7     4    13 ar  
     8     5     6 ar  
     9     5    12 ar  
    10     6     7 ar  
    11     6    28 1   
    12     7     8 ar  
    13     7    29 1   
    14     8     9 ar  
    15     8    30 1   
    16     9    10 1   
    17     9    12 ar  
    18    10    11 1   
    19    11    31 1   
    20    11    32 1   
    21    11    33 1   
    22    12    34 1   
    23    13    14 ar  
    24    13    35 1   
    25    14    15 ar  
    26    14    36 1   
    27    15    16 1   
    28    16    17 1   
    29    16    37 1   
    30    17    18 2   
    31    17    19 1   
    32    19    20 2   
    33    19    24 1   
    34    20    21 1   
    35    20    26 1   
    36    21    22 1   
    37    21    23 1   
    38    24    25 1   
    39    24    38 1   
    40    24    39 1   
    41    25    26 1   
    42    25    40 1   
    43    25    41 1   
    44    26    42 1   
    45    26    43 1   
@<TRIPOS>SUBSTRUCTURE
     1 D5H         1 TEMP              0 ****  ****    0 ROOT
