@<TRIPOS>MOLECULE
D5H
   43    45     1     0     0
SMALL
No Charge or Current Charge


@<TRIPOS>ATOM
      1 F            0.7420     2.2880    -0.2160 f          1 D5H      -0.187000
      2 C9          -0.0360     1.1800    -0.2200 ca         1 D5H       0.093000
      3 C8          -1.4310     1.3310    -0.2270 ca         1 D5H      -0.107000
      4 C7          -2.2890     0.2040    -0.2370 cp         1 D5H      -0.086000
      5 C5          -3.7790     0.3620    -0.2420 cp         1 D5H       0.032000
      6 C4          -4.3990     1.4330    -0.9310 ca         1 D5H      -0.144000
      7 C3          -5.7960     1.5830    -0.9370 ca         1 D5H      -0.079000
      8 C2          -6.6050     0.6640    -0.2510 ca         1 D5H      -0.210000
      9 C1          -6.0130    -0.4110     0.4450 ca         1 D5H       0.135100
     10 O           -6.7560    -1.3430     1.1400 os         1 D5H      -0.343100
     11 C           -8.1920    -1.2870     1.2040 c3         1 D5H       0.152900
     12 C6          -4.6160    -0.5530     0.4440 ca         1 D5H      -0.140000
     13 C12         -1.6860    -1.0790    -0.2380 ca         1 D5H      -0.080000
     14 C11         -0.2880    -1.2310    -0.2340 ca         1 D5H      -0.134000
     15 C10          0.5550    -0.0990    -0.2330 ca         1 D5H       0.008000
     16 N            1.9750    -0.1990    -0.2160 ns         1 D5H      -0.117000
     17 C13          2.8270    -1.2170    -0.5960 c          1 D5H       0.684300
     18 O1           2.4120    -2.2490    -1.1170 o          1 D5H      -0.605100
     19 C14          4.3140    -0.9840    -0.3850 ce         1 D5H      -0.257400
     20 C15          5.0700    -0.0370     0.2740 cf         1 D5H      -0.096400
     21 C19          4.6910     1.1630     1.1190 c          1 D5H       0.704200
     22 O3           3.5210     1.3670     1.3900 o          1 D5H      -0.710000
     23 O2           5.5930     1.8710     1.5450 o          1 D5H      -0.710000
     24 C18          5.2040    -2.0380    -1.0600 c5         1 D5H      -0.025200
     25 C17          6.5110    -1.2330    -1.2690 c5         1 D5H      -0.086400
     26 C16          6.5550    -0.3700     0.0130 c5         1 D5H      -0.045200
     27 H1          -1.8490     2.3340    -0.2100 ha         1 D5H       0.120000
     28 H2          -3.7930     2.1490    -1.4810 ha         1 D5H       0.117000
     29 H3          -6.2500     2.4110    -1.4770 ha         1 D5H       0.102000
     30 H4          -7.6820     0.8020    -0.2710 ha         1 D5H       0.107000
     31 H5          -8.5250    -0.3500     1.6680 h1         1 D5H       0.035033
     32 H6          -8.6300    -1.3600     0.2010 h1         1 D5H       0.035033
     33 H7          -8.5780    -2.1200     1.8060 h1         1 D5H       0.035033
     34 H8          -4.1770    -1.3780     0.9960 ha         1 D5H       0.133000
     35 H9          -2.3090    -1.9710    -0.2520 ha         1 D5H       0.109000
     36 H10          0.1220    -2.2370    -0.2190 ha         1 D5H       0.153000
     37 H11          2.4420     0.6170     0.1590 hn         1 D5H       0.174000
     38 H13          5.3570    -2.9040    -0.4050 hc         1 D5H       0.033700
     39 H14          4.8110    -2.4030    -2.0160 hc         1 D5H       0.033700
     40 H15          7.3930    -1.8740    -1.3820 hc         1 D5H       0.025200
     41 H16          6.4430    -0.6030    -2.1630 hc         1 D5H       0.025200
     42 H17          7.1710     0.5250    -0.1310 hc         1 D5H       0.057200
     43 H18          6.9810    -0.9240     0.8570 hc         1 D5H       0.057200
@<TRIPOS>BOND
     1     1     2 1   
     2     2     3 ar  
     3     2    15 ar  
     4     3     4 ar  
     5     3    27 1   
     6     4     5 1   
     7     4    13 ar  
     8     5     6 ar  
     9     5    12 ar  
    10     6     7 ar  
    11     6    28 1   
    12     7     8 ar  
    13     7    29 1   
    14     8     9 ar  
    15     8    30 1   
    16     9    10 1   
    17     9    12 ar  
    18    10    11 1   
    19    11    31 1   
    20    11    32 1   
    21    11    33 1   
    22    12    34 1   
    23    13    14 ar  
    24    13    35 1   
    25    14    15 ar  
    26    14    36 1   
    27    15    16 1   
    28    16    17 1   
    29    16    37 1   
    30    17    18 2   
    31    17    19 1   
    32    19    20 2   
    33    19    24 1   
    34    20    21 1   
    35    20    26 1   
    36    21    22 1   
    37    21    23 1   
    38    24    25 1   
    39    24    38 1   
    40    24    39 1   
    41    25    26 1   
    42    25    40 1   
    43    25    41 1   
    44    26    42 1   
    45    26    43 1   
@<TRIPOS>SUBSTRUCTURE
     1 D5H         1 TEMP              0 ****  ****    0 ROOT
