@<TRIPOS>MOLECULE
D5I
   43    46     1     0     0
SMALL
No Charge or Current Charge


@<TRIPOS>ATOM
      1 O1           0.1420    -1.1970    -1.1880 o          1 D5I      -0.573100
      2 C2           0.6000    -0.5660    -0.2420 c          1 D5I       0.609100
      3 C3           2.1200    -0.2130    -0.1630 c6         1 D5I      -0.121000
      4 C4           2.9790    -1.5210    -0.1390 c6         1 D5I      -0.059733
      5 C5           4.4980    -1.1810    -0.1130 c6         1 D5I      -0.060367
      6 C12          4.8600    -0.3170    -1.3570 c6         1 D5I      -0.069733
      7 C10          4.0490     1.0130    -1.3330 c6         1 D5I      -0.060367
      8 C11          2.5260     0.6950    -1.3710 c6         1 D5I      -0.059733
      9 C6           4.8240    -0.3870     1.1810 c6         1 D5I      -0.069733
     10 C7           4.0000     0.9300     1.2000 c6         1 D5I      -0.060367
     11 C9           4.3780     1.7960    -0.0330 c6         1 D5I      -0.069733
     12 C8           2.4820     0.5900     1.1470 c6         1 D5I      -0.059733
     13 N13         -0.2180    -0.1510     0.8030 ns         1 D5I      -0.376500
     14 N14         -1.6440    -0.2760     0.7960 ns         1 D5I      -0.363500
     15 C15         -2.4820     0.4940    -0.0010 c          1 D5I       0.611700
     16 O16         -2.0470     1.4250    -0.6690 o          1 D5I      -0.568100
     17 C17         -3.9560     0.1340     0.0080 ca         1 D5I      -0.109600
     18 C18         -4.8700     0.8590    -0.7900 ca         1 D5I      -0.127000
     19 C19         -6.2340     0.5210    -0.7770 ca         1 D5I       0.330900
     20 N20         -6.7380    -0.4830    -0.0250 nb         1 D5I      -0.650000
     21 C21         -5.8740    -1.1840     0.7440 ca         1 D5I       0.330900
     22 C22         -4.4940    -0.9150     0.7930 ca         1 D5I      -0.127000
     23 H1           2.7140    -2.1380     0.7310 hc         1 D5I       0.049533
     24 H2           2.7590    -2.1320    -1.0260 hc         1 D5I       0.049533
     25 H3           5.0820    -2.1120    -0.1300 hc         1 D5I       0.052700
     26 H4           5.9380    -0.1010    -1.3670 hc         1 D5I       0.042033
     27 H5           4.6480    -0.8730    -2.2810 hc         1 D5I       0.042033
     28 H6           4.3180     1.6230    -2.2070 hc         1 D5I       0.052700
     29 H7           2.2830     0.1920    -2.3180 hc         1 D5I       0.049533
     30 H8           1.9440     1.6280    -1.3630 hc         1 D5I       0.049533
     31 H9           4.5930    -0.9940     2.0680 hc         1 D5I       0.042033
     32 H10          5.8990    -0.1640     1.2300 hc         1 D5I       0.042033
     33 H11          4.2210     1.4870     2.1220 hc         1 D5I       0.052700
     34 H12          5.4460     2.0540    -0.0030 hc         1 D5I       0.042033
     35 H13          3.8280     2.7470    -0.0120 hc         1 D5I       0.042033
     36 H14          1.9060     1.5260     1.1970 hc         1 D5I       0.049533
     37 H15          2.2140     0.0090     2.0420 hc         1 D5I       0.049533
     38 H16          0.1930     0.4080     1.5450 hn         1 D5I       0.337500
     39 H17         -2.0410    -1.0680     1.2910 hn         1 D5I       0.342500
     40 H18         -4.5360     1.6790    -1.4200 ha         1 D5I       0.135000
     41 H19         -6.9470     1.0730    -1.3890 h4         1 D5I       0.024100
     42 H20         -6.3010    -1.9880     1.3430 h4         1 D5I       0.024100
     43 H21         -3.8750    -1.5280     1.4410 ha         1 D5I       0.135000
@<TRIPOS>BOND
     1     1     2 2   
     2     2     3 1   
     3     2    13 1   
     4     3     4 1   
     5     3     8 1   
     6     3    12 1   
     7     4     5 1   
     8     4    23 1   
     9     4    24 1   
    10     5     6 1   
    11     5     9 1   
    12     5    25 1   
    13     6     7 1   
    14     6    26 1   
    15     6    27 1   
    16     7     8 1   
    17     7    11 1   
    18     7    28 1   
    19     8    29 1   
    20     8    30 1   
    21     9    10 1   
    22     9    31 1   
    23     9    32 1   
    24    10    11 1   
    25    10    12 1   
    26    10    33 1   
    27    11    34 1   
    28    11    35 1   
    29    12    36 1   
    30    12    37 1   
    31    13    14 1   
    32    13    38 1   
    33    14    15 1   
    34    14    39 1   
    35    15    16 2   
    36    15    17 1   
    37    17    18 ar  
    38    17    22 ar  
    39    18    19 ar  
    40    18    40 1   
    41    19    20 ar  
    42    19    41 1   
    43    20    21 ar  
    44    21    22 ar  
    45    21    42 1   
    46    22    43 1   
@<TRIPOS>SUBSTRUCTURE
     1 D5I         1 TEMP              0 ****  ****    0 ROOT
