@<TRIPOS>MOLECULE
D5I
   43    46     1     0     0
SMALL
bcc


@<TRIPOS>ATOM
      1 O1           0.1440    -1.6640    -0.5420 o          1 D5I      -0.573100
      2 C2           0.5980    -0.7160     0.0670 c          1 D5I       0.676100
      3 C3           2.0660    -0.3150     0.0440 c6         1 D5I      -0.121000
      4 C4           2.8940    -1.4300    -0.6070 c6         1 D5I      -0.059733
      5 C5           4.3670    -1.0240    -0.6760 c6         1 D5I      -0.060367
      6 C12          4.5070     0.2490    -1.5140 c6         1 D5I      -0.069733
      7 C10          3.6970     1.3720    -0.8660 c6         1 D5I      -0.060367
      8 C11          2.2210     0.9690    -0.8000 c6         1 D5I      -0.059733
      9 C6           4.8980    -0.7670     0.7340 c6         1 D5I      -0.069733
     10 C7           4.0870     0.3550     1.3830 c6         1 D5I      -0.060367
     11 C9           4.2180     1.6310     0.5490 c6         1 D5I      -0.069733
     12 C8           2.6140    -0.0510     1.4600 c6         1 D5I      -0.059733
     13 N13         -0.2050     0.0780     0.8310 ns         1 D5I      -0.443500
     14 N14         -1.5550    -0.0690     0.8010 ns         1 D5I      -0.430500
     15 C15         -2.2720     0.3970    -0.2490 c          1 D5I       0.678700
     16 O16         -1.7770     0.9990    -1.1800 o          1 D5I      -0.568100
     17 C17         -3.7420     0.1250    -0.1760 ca         1 D5I      -0.109600
     18 C18         -4.4600     0.0340    -1.3610 ca         1 D5I      -0.210300
     19 C19         -5.8230    -0.2100    -1.2930 ca         1 D5I       0.396200
     20 N20         -6.4870    -0.3450    -0.1510 nb         1 D5I      -0.650000
     21 C21         -5.7990    -0.2390     0.9780 ca         1 D5I       0.396200
     22 C22         -4.4310    -0.0080     1.0230 ca         1 D5I      -0.210300
     23 H1           2.7920    -2.3580    -0.0350 hc         1 D5I       0.049533
     24 H2           2.5210    -1.6340    -1.6140 hc         1 D5I       0.049533
     25 H3           4.9360    -1.8340    -1.1420 hc         1 D5I       0.052700
     26 H4           5.5600     0.5380    -1.5890 hc         1 D5I       0.042033
     27 H5           4.1540     0.0710    -2.5350 hc         1 D5I       0.042033
     28 H6           3.7830     2.2830    -1.4650 hc         1 D5I       0.052700
     29 H7           1.8310     0.7970    -1.8090 hc         1 D5I       0.049533
     30 H8           1.6340     1.7870    -0.3720 hc         1 D5I       0.049533
     31 H9           4.8320    -1.6780     1.3370 hc         1 D5I       0.042033
     32 H10          5.9570    -0.4900     0.6950 hc         1 D5I       0.042033
     33 H11          4.4530     0.5390     2.3970 hc         1 D5I       0.052700
     34 H12          5.2640     1.9520     0.5120 hc         1 D5I       0.042033
     35 H13          3.6540     2.4460     1.0130 hc         1 D5I       0.042033
     36 H14          2.0580     0.7470     1.9610 hc         1 D5I       0.049533
     37 H15          2.5000    -0.9490     2.0760 hc         1 D5I       0.049533
     38 H16          0.1380     0.9270     1.2510 hn         1 D5I       0.337500
     39 H17         -1.9580    -0.7090     1.4680 hn         1 D5I       0.342500
     40 H18         -3.9750     0.1420    -2.3210 ha         1 D5I       0.153000
     41 H19         -6.4020    -0.2990    -2.2050 h4         1 D5I       0.024100
     42 H20         -6.3590    -0.3400     1.9010 h4         1 D5I       0.024100
     43 H21         -3.9440     0.0860     1.9850 ha         1 D5I       0.153000
@<TRIPOS>BOND
     1     1     2 2   
     2     2     3 1   
     3     2    13 1   
     4     3     4 1   
     5     3     8 1   
     6     3    12 1   
     7     4     5 1   
     8     4    23 1   
     9     4    24 1   
    10     5     6 1   
    11     5     9 1   
    12     5    25 1   
    13     6     7 1   
    14     6    26 1   
    15     6    27 1   
    16     7     8 1   
    17     7    11 1   
    18     7    28 1   
    19     8    29 1   
    20     8    30 1   
    21     9    10 1   
    22     9    31 1   
    23     9    32 1   
    24    10    11 1   
    25    10    12 1   
    26    10    33 1   
    27    11    34 1   
    28    11    35 1   
    29    12    36 1   
    30    12    37 1   
    31    13    14 1   
    32    13    38 1   
    33    14    15 1   
    34    14    39 1   
    35    15    16 2   
    36    15    17 1   
    37    17    18 ar  
    38    17    22 ar  
    39    18    19 ar  
    40    18    40 1   
    41    19    20 ar  
    42    19    41 1   
    43    20    21 ar  
    44    21    22 ar  
    45    21    42 1   
    46    22    43 1   
@<TRIPOS>SUBSTRUCTURE
     1 D5I         1 TEMP              0 ****  ****    0 ROOT
