@<TRIPOS>MOLECULE
D5N
   60    63     1     0     0
SMALL
bcc


@<TRIPOS>ATOM
      1 C10          0.8740    -0.7900    -1.1050 ca         1 D5N       0.024000
      2 C11          0.1020     0.3650    -1.1510 ca         1 D5N      -0.159000
      3 C01          3.0330     3.6790    -1.3850 c3         1 D5N       0.604700
      4 O01          2.6280     2.9000    -0.3530 os         1 D5N      -0.352900
      5 C02          2.0430     1.6860    -0.6490 ca         1 D5N       0.048100
      6 C03          2.8440     0.5350    -0.6060 ca         1 D5N       0.163100
      7 O02          4.1380     0.7190    -0.3370 os         1 D5N      -0.303900
      8 C04          5.0050    -0.4140    -0.2180 c5         1 D5N       0.142100
      9 C05          4.7850    -1.1600     1.1120 c5         1 D5N      -0.092900
     10 C06          5.9260    -0.7120     2.0520 c5         1 D5N      -0.077900
     11 C07          6.5850     0.4790     1.3520 c5         1 D5N      -0.077900
     12 C08          6.4210     0.1360    -0.1250 c5         1 D5N      -0.092900
     13 C09          2.2390    -0.6980    -0.8300 ca         1 D5N      -0.204000
     14 C12          0.6930     1.6000    -0.9180 ca         1 D5N      -0.090000
     15 C13          0.3110    -2.1230    -1.3490 cc         1 D5N      -0.059300
     16 N01         -0.7480    -2.6510    -0.6860 na         1 D5N       0.121400
     17 N02         -1.0120    -3.8960    -1.0730 nc         1 D5N      -0.507800
     18 C14         -1.5280    -2.0570     0.3750 c3         1 D5N       0.015300
     19 C15         -2.8820    -1.5210    -0.0920 c3         1 D5N       0.137100
     20 O03         -3.6880    -2.5150    -0.6630 oh         1 D5N      -0.558800
     21 C16         -3.5520    -0.8090     1.0830 c3         1 D5N       0.131800
     22 N03         -4.8870    -0.3390     0.7880 n3         1 D5N      -0.703600
     23 C17         -5.5640     0.1080     1.9920 c6         1 D5N       0.125300
     24 C18         -6.9800     0.5390     1.6640 c6         1 D5N       0.130400
     25 O04         -6.9990     1.5600     0.6920 os         1 D5N      -0.402600
     26 C19         -6.3400     1.1420    -0.4820 c6         1 D5N       0.130400
     27 C20         -4.9100     0.7190    -0.2050 c6         1 D5N       0.125300
     28 C21         -0.1220    -4.1780    -2.0040 cd         1 D5N       0.303200
     29 C22          0.7460    -3.1000    -2.2210 cd         1 D5N      -0.294300
     30 F01          3.8100     2.9930    -2.2510 f          1 D5N      -0.255800
     31 F02          1.9750     4.1120    -2.1150 f          1 D5N      -0.255800
     32 H12         -0.9500     0.3210    -1.3960 ha         1 D5N       0.140000
     33 H01          3.5760     4.5330    -0.9880 h3         1 D5N       0.102700
     34 H02          4.8750    -1.0590    -1.0930 h1         1 D5N       0.054700
     35 H03          3.8050    -0.9300     1.5320 hc         1 D5N       0.056700
     36 H04          4.8050    -2.2390     0.9480 hc         1 D5N       0.056700
     37 H06          5.5660    -0.4660     3.0510 hc         1 D5N       0.047950
     38 H05          6.6540    -1.5180     2.1640 hc         1 D5N       0.047950
     39 H07          6.0610     1.4080     1.5890 hc         1 D5N       0.047950
     40 H08          7.6280     0.6140     1.6420 hc         1 D5N       0.047950
     41 H10          7.1150    -0.6640    -0.3960 hc         1 D5N       0.056700
     42 H09          6.5930     0.9650    -0.8110 hc         1 D5N       0.056700
     43 H11          2.8170    -1.6100    -0.7810 ha         1 D5N       0.148000
     44 H13          0.0880     2.4960    -0.9340 ha         1 D5N       0.152000
     45 H27         -1.6690    -2.8140     1.1480 h1         1 D5N       0.068700
     46 H26         -0.9420    -1.2520     0.8180 h1         1 D5N       0.068700
     47 H14         -2.7040    -0.8030    -0.8980 h1         1 D5N       0.076700
     48 H15         -3.9050    -3.1650     0.0140 ho         1 D5N       0.407000
     49 H16         -3.6220    -1.5100     1.9230 h1         1 D5N       0.034700
     50 H17         -2.8910     0.0100     1.4190 h1         1 D5N       0.034700
     51 H19         -5.6020    -0.7110     2.7140 h1         1 D5N       0.040950
     52 H18         -5.0280     0.9440     2.4760 h1         1 D5N       0.040950
     53 H21         -7.5520    -0.3340     1.3160 h1         1 D5N       0.053200
     54 H20         -7.4720     0.9270     2.5580 h1         1 D5N       0.053200
     55 H22         -6.8780     0.3040    -0.9470 h1         1 D5N       0.053200
     56 H23         -6.3530     1.9800    -1.1810 h1         1 D5N       0.053200
     57 H25         -4.3200     1.5940     0.1210 h1         1 D5N       0.040950
     58 H24         -4.4760     0.3700    -1.1450 h1         1 D5N       0.040950
     59 H28         -0.1250    -5.1430    -2.4880 h4         1 D5N       0.038100
     60 H29          1.5650    -3.0290    -2.9170 ha         1 D5N       0.164000
@<TRIPOS>BOND
     1     1     2 ar  
     2     1    13 ar  
     3     1    15 1   
     4     2    14 ar  
     5     2    32 1   
     6     3     4 1   
     7     3    30 1   
     8     3    31 1   
     9     3    33 1   
    10     4     5 1   
    11     5     6 ar  
    12     5    14 ar  
    13     6     7 1   
    14     6    13 ar  
    15     7     8 1   
    16     8     9 1   
    17     8    12 1   
    18     8    34 1   
    19     9    10 1   
    20     9    35 1   
    21     9    36 1   
    22    10    11 1   
    23    10    37 1   
    24    10    38 1   
    25    11    12 1   
    26    11    39 1   
    27    11    40 1   
    28    12    41 1   
    29    12    42 1   
    30    13    43 1   
    31    14    44 1   
    32    15    16 1   
    33    15    29 2   
    34    16    17 1   
    35    16    18 1   
    36    17    28 2   
    37    18    19 1   
    38    18    45 1   
    39    18    46 1   
    40    19    20 1   
    41    19    21 1   
    42    19    47 1   
    43    20    48 1   
    44    21    22 1   
    45    21    49 1   
    46    21    50 1   
    47    22    23 1   
    48    22    27 1   
    49    23    24 1   
    50    23    51 1   
    51    23    52 1   
    52    24    25 1   
    53    24    53 1   
    54    24    54 1   
    55    25    26 1   
    56    26    27 1   
    57    26    55 1   
    58    26    56 1   
    59    27    57 1   
    60    27    58 1   
    61    28    29 1   
    62    28    59 1   
    63    29    60 1   
@<TRIPOS>SUBSTRUCTURE
     1 D5N         1 TEMP              0 ****  ****    0 ROOT
