@<TRIPOS>MOLECULE
D5N
   60    63     1     0     0
SMALL
No Charge or Current Charge


@<TRIPOS>ATOM
      1 C10          1.0230    -1.0740    -1.1570 ca         1 D5N       0.024000
      2 C11          0.3030     0.1090    -0.9080 ca         1 D5N      -0.141000
      3 C01          2.4880     3.8630    -0.3180 c3         1 D5N       0.385300
      4 O01          3.0890     2.5780    -0.5870 os         1 D5N      -0.376100
      5 C02          2.3800     1.3950    -0.7640 ca         1 D5N       0.048100
      6 C03          3.1080     0.2040    -0.9930 ca         1 D5N       0.163100
      7 O02          4.4920     0.2590    -1.0570 os         1 D5N      -0.327100
      8 C04          5.0790    -0.6100    -0.0470 c5         1 D5N       0.165300
      9 C05          4.8250     0.0080     1.3720 c5         1 D5N      -0.092900
     10 C06          6.2130    -0.0810     2.0540 c5         1 D5N      -0.077900
     11 C07          7.1180     0.3870     0.8910 c5         1 D5N      -0.077900
     12 C08          6.6300    -0.5520    -0.2430 c5         1 D5N      -0.092900
     13 C09          2.4280    -1.0120    -1.2130 ca         1 D5N      -0.186000
     14 C12          0.9680     1.3330    -0.7170 ca         1 D5N      -0.072000
     15 C13          0.3400    -2.3530    -1.3770 cc         1 D5N      -0.110000
     16 N01         -0.8070    -2.9000    -0.7970 na         1 D5N       0.142800
     17 N02         -1.1060    -4.1560    -1.3010 nc         1 D5N      -0.507800
     18 C14         -1.6090    -2.3380     0.3070 c3         1 D5N       0.044600
     19 C15         -2.9220    -1.6540    -0.1470 c3         1 D5N       0.160300
     20 O03         -3.9550    -2.6150    -0.4000 oh         1 D5N      -0.621000
     21 C16         -3.4820    -0.6770     0.9190 c3         1 D5N       0.131800
     22 N03         -4.9040    -0.2980     0.6890 n3         1 D5N      -0.703600
     23 C17         -5.5040     0.3950     1.8710 c6         1 D5N       0.125300
     24 C18         -6.9960     0.7680     1.6270 c6         1 D5N       0.153600
     25 O04         -7.1230     1.5670     0.4270 os         1 D5N      -0.449000
     26 C19         -6.6150     0.8910    -0.7480 c6         1 D5N       0.153600
     27 C20         -5.1160     0.5180    -0.5530 c6         1 D5N       0.125300
     28 C21         -0.1600    -4.3550    -2.2030 cd         1 D5N       0.237900
     29 C22          0.7490    -3.2820    -2.2860 cd         1 D5N      -0.211000
     30 F01          1.6570     4.2390    -1.3190 f          1 D5N      -0.134500
     31 F02          1.7600     3.8380     0.8230 f          1 D5N      -0.134500
     32 H12         -0.7810     0.0980    -0.8890 ha         1 D5N       0.122000
     33 H01          3.2660     4.6260    -0.2120 h3         1 D5N       0.102700
     34 H02          4.7160    -1.6410    -0.1420 h1         1 D5N       0.054700
     35 H03          4.4940     1.0510     1.3130 hc         1 D5N       0.056700
     36 H04          4.0570    -0.5420     1.9270 hc         1 D5N       0.056700
     37 H06          6.2890     0.5690     2.9330 hc         1 D5N       0.047950
     38 H05          6.4500    -1.1030     2.3740 hc         1 D5N       0.047950
     39 H07          6.9550     1.4440     0.6450 hc         1 D5N       0.047950
     40 H08          8.1840     0.2590     1.1100 hc         1 D5N       0.047950
     41 H10          7.0650    -1.5520    -0.1330 hc         1 D5N       0.056700
     42 H09          6.9220    -0.1900    -1.2350 hc         1 D5N       0.056700
     43 H11          2.9910    -1.9140    -1.4290 ha         1 D5N       0.130000
     44 H13          0.3660     2.2180    -0.5410 ha         1 D5N       0.134000
     45 H27         -1.8410    -3.1390     1.0190 h1         1 D5N       0.068700
     46 H26         -0.9870    -1.6080     0.8370 h1         1 D5N       0.068700
     47 H14         -2.7220    -1.0760    -1.0590 h1         1 D5N       0.076700
     48 H15         -4.7680    -2.1360    -0.1080 ho         1 D5N       0.446000
     49 H16         -3.3950    -1.1670     1.8990 h1         1 D5N       0.034700
     50 H17         -2.8470     0.2190     0.9530 h1         1 D5N       0.034700
     51 H19         -5.4430    -0.2480     2.7610 h1         1 D5N       0.040950
     52 H18         -4.9440     1.3140     2.0980 h1         1 D5N       0.040950
     53 H21         -7.5980    -0.1450     1.5220 h1         1 D5N       0.053200
     54 H20         -7.3840     1.3380     2.4830 h1         1 D5N       0.053200
     55 H22         -7.2080    -0.0170    -0.9290 h1         1 D5N       0.053200
     56 H23         -6.7260     1.5520    -1.6200 h1         1 D5N       0.053200
     57 H25         -4.5270     1.4460    -0.5020 h1         1 D5N       0.040950
     58 H24         -4.7780    -0.0300    -1.4430 h1         1 D5N       0.040950
     59 H28         -0.1560    -5.2760    -2.7730 h4         1 D5N       0.038100
     60 H29          1.6030    -3.2170    -2.9520 ha         1 D5N       0.146000
@<TRIPOS>BOND
     1     1     2 ar  
     2     1    13 ar  
     3     1    15 1   
     4     2    14 ar  
     5     2    32 1   
     6     3     4 1   
     7     3    30 1   
     8     3    31 1   
     9     3    33 1   
    10     4     5 1   
    11     5     6 ar  
    12     5    14 ar  
    13     6     7 1   
    14     6    13 ar  
    15     7     8 1   
    16     8     9 1   
    17     8    12 1   
    18     8    34 1   
    19     9    10 1   
    20     9    35 1   
    21     9    36 1   
    22    10    11 1   
    23    10    37 1   
    24    10    38 1   
    25    11    12 1   
    26    11    39 1   
    27    11    40 1   
    28    12    41 1   
    29    12    42 1   
    30    13    43 1   
    31    14    44 1   
    32    15    16 1   
    33    15    29 2   
    34    16    17 1   
    35    16    18 1   
    36    17    28 2   
    37    18    19 1   
    38    18    45 1   
    39    18    46 1   
    40    19    20 1   
    41    19    21 1   
    42    19    47 1   
    43    20    48 1   
    44    21    22 1   
    45    21    49 1   
    46    21    50 1   
    47    22    23 1   
    48    22    27 1   
    49    23    24 1   
    50    23    51 1   
    51    23    52 1   
    52    24    25 1   
    53    24    53 1   
    54    24    54 1   
    55    25    26 1   
    56    26    27 1   
    57    26    55 1   
    58    26    56 1   
    59    27    57 1   
    60    27    58 1   
    61    28    29 1   
    62    28    59 1   
    63    29    60 1   
@<TRIPOS>SUBSTRUCTURE
     1 D5N         1 TEMP              0 ****  ****    0 ROOT
