@<TRIPOS>MOLECULE
D5O
   38    40     1     0     0
SMALL
No Charge or Current Charge


@<TRIPOS>ATOM
      1 C1           3.3890     0.8170     0.4870 ca         1 D5O       0.267100
      2 C10         -1.9530     0.1510    -1.4400 c3         1 D5O      -0.034200
      3 C11         -3.0170     0.1350    -0.3020 c6         1 D5O      -0.056700
      4 C12         -3.8980    -1.0860     1.7780 c6         1 D5O      -0.072900
      5 C13         -5.3300    -1.0640     1.1920 c6         1 D5O      -0.075400
      6 C14         -5.5250     0.1440     0.2440 c6         1 D5O      -0.072900
      7 C15         -4.4600     0.1510    -0.8810 c6         1 D5O      -0.072400
      8 C17         -2.8300    -1.0780     0.6560 c6         1 D5O      -0.072400
      9 C2           4.2940    -0.2490     0.4910 ca         1 D5O      -0.228000
     10 C3           3.9000    -1.5000     0.0140 ca         1 D5O       0.227100
     11 C4           2.6000    -1.6830    -0.4680 ca         1 D5O      -0.271000
     12 C5           1.6950    -0.6120    -0.4720 ca         1 D5O       0.103200
     13 C6           0.3580    -0.8040    -0.9640 cc         1 D5O      -0.280200
     14 C7          -0.5260     0.2540    -0.9600 cd         1 D5O       0.147900
     15 C8           1.0760     1.7540    -0.0220 c          1 D5O       0.699700
     16 C9           2.0760     0.6390     0.0020 ca         1 D5O      -0.350600
     17 O1           3.8090     2.0200     0.9600 oh         1 D5O      -0.531100
     18 O2           4.7810    -2.5340     0.0190 oh         1 D5O      -0.521100
     19 O3          -0.1860     1.5130    -0.5170 os         1 D5O      -0.324200
     20 O4           1.3760     2.8680     0.3890 o          1 D5O      -0.545000
     21 H1          -2.0680    -0.7470    -2.0610 hc         1 D5O       0.065700
     22 H2          -2.1540     0.9930    -2.1130 hc         1 D5O       0.065700
     23 H3          -2.8670     1.0600     0.2750 hc         1 D5O       0.067700
     24 H4          -3.7530    -0.2150     2.4330 hc         1 D5O       0.041200
     25 H5          -3.7680    -1.9750     2.4100 hc         1 D5O       0.041200
     26 H6          -5.5210    -1.9980     0.6460 hc         1 D5O       0.039200
     27 H7          -6.0660    -1.0220     2.0060 hc         1 D5O       0.039200
     28 H8          -6.5310     0.1140    -0.1960 hc         1 D5O       0.041200
     29 H9          -5.4640     1.0790     0.8180 hc         1 D5O       0.041200
     30 H10         -4.6020     1.0390    -1.5120 hc         1 D5O       0.038700
     31 H11         -4.6100    -0.7210    -1.5330 hc         1 D5O       0.038700
     32 H12         -2.8890    -2.0160     0.0860 hc         1 D5O       0.038700
     33 H13         -1.8310    -1.0530     1.1120 hc         1 D5O       0.038700
     34 H14          5.3020    -0.1040     0.8660 ha         1 D5O       0.151000
     35 H15          2.2870    -2.6550    -0.8410 ha         1 D5O       0.122000
     36 H16          0.0300    -1.7730    -1.3270 ha         1 D5O       0.203000
     37 H17          3.0380     2.6330     0.8750 ho         1 D5O       0.516000
     38 H18          4.3260    -3.3200    -0.3500 ho         1 D5O       0.473000
@<TRIPOS>BOND
     1     1     9 ar  
     2     1    16 ar  
     3     1    17 1   
     4     2     3 1   
     5     2    14 1   
     6     2    21 1   
     7     2    22 1   
     8     3     7 1   
     9     3     8 1   
    10     3    23 1   
    11     4     5 1   
    12     4     8 1   
    13     4    24 1   
    14     4    25 1   
    15     5     6 1   
    16     5    26 1   
    17     5    27 1   
    18     6     7 1   
    19     6    28 1   
    20     6    29 1   
    21     7    30 1   
    22     7    31 1   
    23     8    32 1   
    24     8    33 1   
    25     9    10 ar  
    26     9    34 1   
    27    10    11 ar  
    28    10    18 1   
    29    11    12 ar  
    30    11    35 1   
    31    12    13 1   
    32    12    16 ar  
    33    13    14 2   
    34    13    36 1   
    35    14    19 1   
    36    15    16 1   
    37    15    19 1   
    38    15    20 2   
    39    17    37 1   
    40    18    38 1   
@<TRIPOS>SUBSTRUCTURE
     1 D5O         1 TEMP              0 ****  ****    0 ROOT
