@<TRIPOS>MOLECULE
D5O
   38    40     1     0     0
SMALL
abcg2


@<TRIPOS>ATOM
      1 C1           3.3140     0.7870     0.5380 ca         1 D5O       0.267100
      2 C10         -1.9470     0.0110    -1.3850 c3         1 D5O      -0.034200
      3 C11         -3.0000     0.1280    -0.2750 c6         1 D5O      -0.056700
      4 C12         -3.9650    -0.9090     1.8200 c6         1 D5O      -0.072900
      5 C13         -5.3540    -0.9180     1.1910 c6         1 D5O      -0.075400
      6 C14         -5.4930     0.1950     0.1590 c6         1 D5O      -0.072900
      7 C15         -4.3960     0.1160    -0.8970 c6         1 D5O      -0.072400
      8 C17         -2.8680    -0.9840     0.7630 c6         1 D5O      -0.072400
      9 C2           4.2840    -0.1950     0.4350 ca         1 D5O      -0.228000
     10 C3           3.9680    -1.4250    -0.1450 ca         1 D5O       0.227100
     11 C4           2.6880    -1.6900    -0.6300 ca         1 D5O      -0.271000
     12 C5           1.7120    -0.7110    -0.5320 ca         1 D5O       0.103200
     13 C6           0.3730    -0.9090    -1.0170 cc         1 D5O      -0.280200
     14 C7          -0.5390     0.0650    -0.9120 cd         1 D5O       0.147900
     15 C8           0.9930     1.5440     0.1570 c          1 D5O       0.699700
     16 C9           2.0090     0.5350     0.0540 ca         1 D5O      -0.350600
     17 O1           3.6450     1.9490     1.0940 oh         1 D5O      -0.531100
     18 O2           4.9500    -2.3280    -0.2110 oh         1 D5O      -0.521100
     19 O3          -0.2270     1.2580    -0.3330 os         1 D5O      -0.324200
     20 O4           1.1430     2.6490     0.6530 o          1 D5O      -0.545000
     21 H1          -2.0850    -0.9310    -1.9210 hc         1 D5O       0.065700
     22 H2          -2.1040     0.8130    -2.1140 hc         1 D5O       0.065700
     23 H3          -2.8680     1.0920     0.2310 hc         1 D5O       0.067700
     24 H4          -3.8420     0.0070     2.4080 hc         1 D5O       0.041200
     25 H5          -3.8610    -1.7400     2.5220 hc         1 D5O       0.041200
     26 H6          -5.5300    -1.8870     0.7110 hc         1 D5O       0.039200
     27 H7          -6.1190    -0.8140     1.9650 hc         1 D5O       0.039200
     28 H8          -6.4740     0.1520    -0.3200 hc         1 D5O       0.041200
     29 H9          -5.4370     1.1650     0.6650 hc         1 D5O       0.041200
     30 H10         -4.4940     0.9460    -1.6030 hc         1 D5O       0.038700
     31 H11         -4.5160    -0.8030    -1.4840 hc         1 D5O       0.038700
     32 H12         -2.9160    -1.9540     0.2530 hc         1 D5O       0.038700
     33 H13         -1.8870    -0.9420     1.2450 hc         1 D5O       0.038700
     34 H14          5.2850    -0.0090     0.8030 ha         1 D5O       0.151000
     35 H15          2.4540    -2.6480    -1.0790 ha         1 D5O       0.122000
     36 H16          0.0940    -1.8470    -1.4760 ha         1 D5O       0.203000
     37 H17          2.8550     2.5290     1.0980 ho         1 D5O       0.516000
     38 H18          4.6430    -3.1400    -0.6310 ho         1 D5O       0.473000
@<TRIPOS>BOND
     1     1     9 ar  
     2     1    16 ar  
     3     1    17 1   
     4     2     3 1   
     5     2    14 1   
     6     2    21 1   
     7     2    22 1   
     8     3     7 1   
     9     3     8 1   
    10     3    23 1   
    11     4     5 1   
    12     4     8 1   
    13     4    24 1   
    14     4    25 1   
    15     5     6 1   
    16     5    26 1   
    17     5    27 1   
    18     6     7 1   
    19     6    28 1   
    20     6    29 1   
    21     7    30 1   
    22     7    31 1   
    23     8    32 1   
    24     8    33 1   
    25     9    10 ar  
    26     9    34 1   
    27    10    11 ar  
    28    10    18 1   
    29    11    12 ar  
    30    11    35 1   
    31    12    13 1   
    32    12    16 ar  
    33    13    14 2   
    34    13    36 1   
    35    14    19 1   
    36    15    16 1   
    37    15    19 1   
    38    15    20 2   
    39    17    37 1   
    40    18    38 1   
@<TRIPOS>SUBSTRUCTURE
     1 D5O         1 TEMP              0 ****  ****    0 ROOT
