@<TRIPOS>MOLECULE
D5P
   54    58     1     0     0
SMALL
abcg2


@<TRIPOS>ATOM
      1 N1          23.7090   -19.8840    37.4470 n8         1 D5P      -0.998200
      2 C4          21.9350   -14.6130    37.5000 ca         1 D5P       0.416900
      3 C5          21.6020   -15.1500    39.8590 c3         1 D5P       0.291100
      4 C6          22.9660   -14.9020    40.4580 ca         1 D5P      -0.100300
      5 C7          23.6750   -15.9510    41.0320 ca         1 D5P      -0.085000
      6 C8          24.9140   -15.7480    41.6190 ca         1 D5P      -0.112500
      7 C10         27.2150   -13.1180    42.7480 cc         1 D5P      -0.161000
      8 C13         24.7790   -13.4160    41.0450 ca         1 D5P      -0.112500
      9 C15         21.6540   -13.8920    36.3120 ca         1 D5P      -0.217200
     10 C17         22.2440   -13.2700    32.7290 cy         1 D5P      -0.096000
     11 C20         22.2200   -14.5480    31.8560 cy         1 D5P      -0.081400
     12 C21         22.3490   -14.2380    35.1580 ca         1 D5P       0.006700
     13 C1          23.6330   -18.6870    38.2680 c3         1 D5P       0.154800
     14 C2          24.7400   -17.7090    37.9170 c3         1 D5P       0.045600
     15 S1          24.6760   -17.0910    36.2110 ss         1 D5P      -0.327300
     16 C3          23.4530   -15.8190    36.2640 ca         1 D5P       0.255300
     17 N2          22.8450   -15.5720    37.4270 nb         1 D5P      -0.275000
     18 C9          25.4710   -14.4750    41.6230 ca         1 D5P       0.025800
     19 N4          26.7360   -14.2630    42.2070 na         1 D5P       0.223000
     20 C11         28.4820   -13.3910    43.1950 cd         1 D5P      -0.225000
     21 C12         28.6770   -14.7470    42.8760 cd         1 D5P       0.245900
     22 N5          27.6200   -15.2610    42.2820 nc         1 D5P      -0.517800
     23 C14         23.5330   -13.6330    40.4790 ca         1 D5P      -0.085000
     24 N6          20.8250   -12.8790    35.9700 na         1 D5P      -0.040400
     25 N7          20.9460   -12.5630    34.6870 nc         1 D5P      -0.503100
     26 C16         21.8560   -13.3560    34.1560 cd         1 D5P       0.260300
     27 C18         23.7370   -13.1130    32.3530 cy         1 D5P      -0.081400
     28 C19         23.4870   -14.0360    31.1480 cy         1 D5P      -0.089400
     29 N8          23.2740   -15.2200    35.1130 nb         1 D5P      -0.138000
     30 H1          22.9920   -20.5350    37.7400 hn         1 D5P       0.398000
     31 H2          23.4820   -19.6430    36.4890 hn         1 D5P       0.398000
     32 H4          20.6270   -13.6590    38.7280 hn         1 D5P       0.495000
     33 H5          20.8300   -14.8870    40.5830 h1         1 D5P       0.057700
     34 H6          21.4860   -16.2160    39.6500 h1         1 D5P       0.057700
     35 H7          23.2560   -16.9500    41.0220 ha         1 D5P       0.115500
     36 H8          25.4450   -16.5780    42.0630 ha         1 D5P       0.133000
     37 H10         25.2070   -12.4230    41.0160 ha         1 D5P       0.133000
     38 H11         21.6550   -12.4830    32.2520 hc         1 D5P       0.067700
     39 H12         21.3260   -14.7230    31.2560 hc         1 D5P       0.058200
     40 H13         22.4260   -15.4390    32.4500 hc         1 D5P       0.058200
     41 H14         22.6680   -18.1680    38.2200 h1         1 D5P       0.033200
     42 H15         23.7780   -18.9760    39.3130 h1         1 D5P       0.033200
     43 H16         25.7110   -18.2030    37.9880 h1         1 D5P       0.088200
     44 H17         24.7450   -16.8590    38.5960 h1         1 D5P       0.088200
     45 H18         29.1620   -12.7160    43.6860 ha         1 D5P       0.148000
     46 H19         29.5490   -15.3580    43.0550 h4         1 D5P       0.040100
     47 H20         23.0120   -12.7970    40.0290 ha         1 D5P       0.115500
     48 H21         20.1640   -12.3810    36.5440 hn         1 D5P       0.376000
     49 H22         24.3850   -13.5840    33.0930 hc         1 D5P       0.058200
     50 H23         24.0980   -12.1010    32.1650 hc         1 D5P       0.058200
     51 H24         24.2580   -14.7660    30.9010 hc         1 D5P       0.047700
     52 H25         23.2450   -13.4690    30.2480 hc         1 D5P       0.047700
     53 N3          21.3280   -14.3780    38.6700 nu         1 D5P      -0.941100
     54 H9          26.6280   -12.2160    42.7960 h4         1 D5P       0.155000
@<TRIPOS>BOND
     1     1    13 1   
     2     1    30 1   
     3     1    31 1   
     4     2     9 ar  
     5     2    17 ar  
     6     2    53 1   
     7     3     4 1   
     8     3    33 1   
     9     3    34 1   
    10     3    53 1   
    11     4     5 ar  
    12     4    23 ar  
    13     5     6 ar  
    14     5    35 1   
    15     6    18 ar  
    16     6    36 1   
    17     7    19 1   
    18     7    20 2   
    19     7    54 1   
    20     8    18 ar  
    21     8    23 ar  
    22     8    37 1   
    23     9    12 ar  
    24     9    24 1   
    25    10    11 1   
    26    10    26 1   
    27    10    27 1   
    28    10    38 1   
    29    11    28 1   
    30    11    39 1   
    31    11    40 1   
    32    12    26 1   
    33    12    29 ar  
    34    13    14 1   
    35    13    41 1   
    36    13    42 1   
    37    14    15 1   
    38    14    43 1   
    39    14    44 1   
    40    15    16 1   
    41    16    17 ar  
    42    16    29 ar  
    43    18    19 1   
    44    19    22 1   
    45    20    21 1   
    46    20    45 1   
    47    21    22 2   
    48    21    46 1   
    49    23    47 1   
    50    24    25 1   
    51    24    48 1   
    52    25    26 2   
    53    27    28 1   
    54    27    49 1   
    55    27    50 1   
    56    28    51 1   
    57    28    52 1   
    58    32    53 1   
@<TRIPOS>SUBSTRUCTURE
     1 D5P         1 TEMP              0 ****  ****    0 ROOT
