@<TRIPOS>MOLECULE
D5P
   54    58     1     0     0
SMALL
No Charge or Current Charge


@<TRIPOS>ATOM
      1 N1          24.4060   -19.3930    37.8880 n8         1 D5P      -0.998200
      2 C4          21.9210   -14.4090    37.4480 ca         1 D5P       0.416900
      3 C5          21.3090   -14.8210    39.9170 c3         1 D5P       0.291100
      4 C6          22.7120   -14.7900    40.5270 ca         1 D5P      -0.100300
      5 C7          23.2300   -15.9460    41.1420 ca         1 D5P      -0.085000
      6 C8          24.5270   -15.9460    41.6830 ca         1 D5P      -0.112500
      7 C10         27.1650   -13.7380    42.8740 cc         1 D5P      -0.161000
      8 C13         24.8020   -13.6240    41.0230 ca         1 D5P      -0.112500
      9 C15         21.5630   -13.8610    36.2090 ca         1 D5P      -0.217200
     10 C17         22.1100   -13.4820    32.5530 cy         1 D5P      -0.096000
     11 C20         22.3190   -14.8290    31.7770 cy         1 D5P      -0.081400
     12 C21         22.2930   -14.1840    35.1150 ca         1 D5P       0.006700
     13 C1          24.2220   -18.1310    38.6390 c3         1 D5P       0.154800
     14 C2          25.2520   -17.0480    38.2370 c3         1 D5P       0.045600
     15 S1          25.1040   -16.5600    36.4460 ss         1 D5P      -0.327300
     16 C3          23.6620   -15.4950    36.3650 ca         1 D5P       0.255300
     17 N2          22.9830   -15.2410    37.5160 nb         1 D5P      -0.275000
     18 C9          25.3280   -14.7880    41.6230 ca         1 D5P       0.025800
     19 N4          26.6260   -14.7930    42.1480 na         1 D5P       0.223000
     20 C11         28.4370   -14.1790    43.1110 cd         1 D5P      -0.225000
     21 C12         28.5760   -15.4510    42.5060 cd         1 D5P       0.245900
     22 N5          27.4740   -15.8510    41.8970 nc         1 D5P      -0.517800
     23 C14         23.5040   -13.6240    40.4840 ca         1 D5P      -0.085000
     24 N6          20.5490   -12.9990    35.8170 na         1 D5P      -0.040400
     25 N7          20.6300   -12.7590    34.4300 nc         1 D5P      -0.503100
     26 C16         21.6880   -13.4780    34.0090 cd         1 D5P       0.260300
     27 C18         23.5900   -13.1650    32.1410 cy         1 D5P      -0.081400
     28 C19         23.3000   -14.0220    30.8650 cy         1 D5P      -0.089400
     29 N8          23.3600   -15.0000    35.1380 nb         1 D5P      -0.138000
     30 H1          23.6150   -20.0190    38.0830 hn         1 D5P       0.398000
     31 H2          24.3140   -19.1870    36.8860 hn         1 D5P       0.398000
     32 H4          20.4620   -13.4500    38.5220 hn         1 D5P       0.495000
     33 H5          20.6100   -14.3660    40.6320 h1         1 D5P       0.057700
     34 H6          20.9970   -15.8670    39.7840 h1         1 D5P       0.057700
     35 H7          22.6300   -16.8520    41.1940 ha         1 D5P       0.115500
     36 H8          24.9110   -16.8510    42.1490 ha         1 D5P       0.133000
     37 H10         25.4040   -12.7200    40.9610 ha         1 D5P       0.133000
     38 H11         21.3910   -12.8230    32.0490 hc         1 D5P       0.067700
     39 H12         21.4310   -15.2390    31.2820 hc         1 D5P       0.058200
     40 H13         22.7920   -15.6290    32.3590 hc         1 D5P       0.058200
     41 H14         23.2040   -17.7590    38.4590 h1         1 D5P       0.033200
     42 H15         24.3200   -18.3470    39.7120 h1         1 D5P       0.033200
     43 H16         26.2620   -17.4400    38.4120 h1         1 D5P       0.088200
     44 H17         25.1280   -16.1590    38.8690 h1         1 D5P       0.088200
     45 H18         29.2080   -13.6500    43.6620 ha         1 D5P       0.148000
     46 H19         29.4510   -16.0890    42.4930 h4         1 D5P       0.040100
     47 H20         23.1190   -12.7190    40.0190 ha         1 D5P       0.115500
     48 H21         19.8270   -12.5760    36.4000 hn         1 D5P       0.376000
     49 H22         24.3540   -13.5830    32.8060 hc         1 D5P       0.058200
     50 H23         23.8220   -12.1080    31.9670 hc         1 D5P       0.058200
     51 H24         24.1500   -14.5820    30.4590 hc         1 D5P       0.047700
     52 H25         22.8180   -13.4740    30.0460 hc         1 D5P       0.047700
     53 N3          21.2230   -14.1190    38.6190 nu         1 D5P      -0.941100
     54 H9          26.6280   -12.8380    43.1430 h4         1 D5P       0.155000
@<TRIPOS>BOND
     1     1    13 1   
     2     1    30 1   
     3     1    31 1   
     4     2     9 ar  
     5     2    17 ar  
     6     2    53 1   
     7     3     4 1   
     8     3    33 1   
     9     3    34 1   
    10     3    53 1   
    11     4     5 ar  
    12     4    23 ar  
    13     5     6 ar  
    14     5    35 1   
    15     6    18 ar  
    16     6    36 1   
    17     7    19 1   
    18     7    20 2   
    19     7    54 1   
    20     8    18 ar  
    21     8    23 ar  
    22     8    37 1   
    23     9    12 ar  
    24     9    24 1   
    25    10    11 1   
    26    10    26 1   
    27    10    27 1   
    28    10    38 1   
    29    11    28 1   
    30    11    39 1   
    31    11    40 1   
    32    12    26 1   
    33    12    29 ar  
    34    13    14 1   
    35    13    41 1   
    36    13    42 1   
    37    14    15 1   
    38    14    43 1   
    39    14    44 1   
    40    15    16 1   
    41    16    17 ar  
    42    16    29 ar  
    43    18    19 1   
    44    19    22 1   
    45    20    21 1   
    46    20    45 1   
    47    21    22 2   
    48    21    46 1   
    49    23    47 1   
    50    24    25 1   
    51    24    48 1   
    52    25    26 2   
    53    27    28 1   
    54    27    49 1   
    55    27    50 1   
    56    28    51 1   
    57    28    52 1   
    58    32    53 1   
@<TRIPOS>SUBSTRUCTURE
     1 D5P         1 TEMP              0 ****  ****    0 ROOT
