@<TRIPOS>MOLECULE
D5Q
   65    69     1     0     0
SMALL
No Charge or Current Charge


@<TRIPOS>ATOM
      1 C01         10.9440    -0.6140    -1.2980 c3         1 D5Q       0.149900
      2 O02          9.6330    -0.0650    -1.5240 os         1 D5Q      -0.343100
      3 C03          8.5680    -0.3290    -0.6860 ca         1 D5Q       0.106100
      4 C04          8.6830    -1.1540     0.4460 ca         1 D5Q      -0.160000
      5 C05          7.5620    -1.3870     1.2550 ca         1 D5Q      -0.161000
      6 C06          6.3090    -0.8020     0.9470 ca         1 D5Q       0.113100
      7 O07          5.2190    -1.0130     1.7720 os         1 D5Q      -0.339100
      8 C08          5.2720    -1.8350     2.9520 c3         1 D5Q       0.147900
      9 C09          6.1790     0.0360    -0.2000 ca         1 D5Q       0.009000
     10 C10          7.3310     0.2530    -0.9970 ca         1 D5Q      -0.113000
     11 C11          4.8930     0.6730    -0.5880 cc         1 D5Q      -0.108000
     12 C12          4.8560     1.7170    -1.4810 cd         1 D5Q      -0.157000
     13 N13          3.5200     2.1210    -1.5900 na         1 D5Q       0.073000
     14 C14          3.0540     3.2140    -2.4560 c3         1 D5Q       0.057900
     15 C15          2.7170     1.3390    -0.7460 cd         1 D5Q      -0.274600
     16 C16          3.5730     0.4590    -0.1270 cc         1 D5Q      -0.088000
     17 C17          1.2430     1.4220    -0.5370 c          1 D5Q       0.664700
     18 O18          0.5300     2.2290    -1.1160 o          1 D5Q      -0.604100
     19 N19          0.7710     0.5080     0.3730 ns         1 D5Q      -0.316900
     20 C20         -0.5230     0.2500     0.8320 ca         1 D5Q       0.488900
     21 C21         -1.7130     0.7590     0.2790 ca         1 D5Q      -0.186000
     22 C22         -2.9400     0.3900     0.8500 ca         1 D5Q       0.048000
     23 C23         -2.9110    -0.4520     1.9740 ca         1 D5Q      -0.180000
     24 C24         -1.6780    -0.9160     2.4550 ca         1 D5Q       0.373900
     25 N25         -0.4960    -0.5770     1.8940 nb         1 D5Q      -0.733000
     26 C26         -4.1950     0.9210     0.3270 cc         1 D5Q      -0.145000
     27 C27         -5.3680     0.2090     0.1030 cd         1 D5Q       0.331500
     28 N28         -6.3660     1.0890    -0.2930 nd         1 D5Q      -0.684000
     29 C29         -5.7850     2.2690    -0.2980 cc         1 D5Q       0.519800
     30 N30         -4.4700     2.2400     0.0450 na         1 D5Q      -0.273500
     31 S31         -6.5780     3.7740    -0.7270 ss         1 D5Q      -0.350300
     32 C32         -8.3030     3.2170    -1.1050 c3         1 D5Q       0.044900
     33 C33         -5.6130    -1.2570     0.1020 ca         1 D5Q      -0.126500
     34 C34         -6.9430    -1.7420     0.1440 ca         1 D5Q      -0.064500
     35 C35         -7.2090    -3.1220     0.1100 ca         1 D5Q      -0.158500
     36 C36         -6.1530    -4.0360     0.0050 ca         1 D5Q       0.172000
     37 F37         -6.4100    -5.3610    -0.0330 f          1 D5Q      -0.181000
     38 C38         -4.8330    -3.5760    -0.0820 ca         1 D5Q      -0.158500
     39 C39         -4.5640    -2.1960    -0.0460 ca         1 D5Q      -0.064500
     40 H012        11.3410    -0.2880    -0.3280 h1         1 D5Q       0.038367
     41 H011        10.9160    -1.7110    -1.3170 h1         1 D5Q       0.038367
     42 H013        11.6370    -0.2780    -2.0790 h1         1 D5Q       0.038367
     43 H041         9.6270    -1.6200     0.7150 ha         1 D5Q       0.116000
     44 H051         7.6880    -2.0250     2.1250 ha         1 D5Q       0.116000
     45 H081         4.2900    -1.8580     3.4420 h1         1 D5Q       0.039033
     46 H083         5.5480    -2.8660     2.6980 h1         1 D5Q       0.039033
     47 H082         6.0000    -1.4400     3.6710 h1         1 D5Q       0.039033
     48 H101         7.2820     0.8640    -1.8910 ha         1 D5Q       0.127000
     49 H121         5.6420     2.2190    -2.0300 h4         1 D5Q       0.151000
     50 H143         2.3250     2.8250    -3.1770 h1         1 D5Q       0.060367
     51 H141         2.5840     3.9920    -1.8440 h1         1 D5Q       0.060367
     52 H142         3.9020     3.6470    -3.0000 h1         1 D5Q       0.060367
     53 H161         3.2860    -0.3010     0.5900 ha         1 D5Q       0.143000
     54 H191         1.4740    -0.0760     0.8000 hn         1 D5Q       0.177000
     55 H211        -1.6990     1.4110    -0.5860 ha         1 D5Q       0.155000
     56 H231        -3.8280    -0.7490     2.4740 ha         1 D5Q       0.139000
     57 H241        -1.6330    -1.5770     3.3200 h4         1 D5Q       0.023100
     58 H301        -3.8560     3.0400     0.1140 hn         1 D5Q       0.370000
     59 H341        -7.7780    -1.0500     0.2250 ha         1 D5Q       0.126500
     60 H351        -8.2340    -3.4820     0.1610 ha         1 D5Q       0.131000
     61 H381        -4.0190    -4.2880    -0.1910 ha         1 D5Q       0.131000
     62 H391        -3.5360    -1.8730    -0.1710 ha         1 D5Q       0.126500
     63 H321        -8.2890     2.4950    -1.9310 h1         1 D5Q       0.073700
     64 H322        -8.7440     2.7420    -0.2190 h1         1 D5Q       0.073700
     65 H323        -8.9170     4.0790    -1.3930 h1         1 D5Q       0.073700
@<TRIPOS>BOND
     1     1     2 1   
     2     1    40 1   
     3     1    41 1   
     4     1    42 1   
     5     2     3 1   
     6     3     4 ar  
     7     3    10 ar  
     8     4     5 ar  
     9     4    43 1   
    10     5     6 ar  
    11     5    44 1   
    12     6     7 1   
    13     6     9 ar  
    14     7     8 1   
    15     8    45 1   
    16     8    46 1   
    17     8    47 1   
    18     9    10 ar  
    19     9    11 1   
    20    10    48 1   
    21    11    12 2   
    22    11    16 1   
    23    12    13 1   
    24    12    49 1   
    25    13    14 1   
    26    13    15 1   
    27    14    50 1   
    28    14    51 1   
    29    14    52 1   
    30    15    16 2   
    31    15    17 1   
    32    16    53 1   
    33    17    18 2   
    34    17    19 1   
    35    19    20 1   
    36    19    54 1   
    37    20    21 ar  
    38    20    25 ar  
    39    21    22 ar  
    40    21    55 1   
    41    22    23 ar  
    42    22    26 1   
    43    23    24 ar  
    44    23    56 1   
    45    24    25 ar  
    46    24    57 1   
    47    26    27 2   
    48    26    30 1   
    49    27    28 1   
    50    27    33 1   
    51    28    29 2   
    52    29    30 1   
    53    29    31 1   
    54    30    58 1   
    55    31    32 1   
    56    32    63 1   
    57    32    64 1   
    58    32    65 1   
    59    33    34 ar  
    60    33    39 ar  
    61    34    35 ar  
    62    34    59 1   
    63    35    36 ar  
    64    35    60 1   
    65    36    37 1   
    66    36    38 ar  
    67    38    39 ar  
    68    38    61 1   
    69    39    62 1   
@<TRIPOS>SUBSTRUCTURE
     1 D5Q         1 TEMP              0 ****  ****    0 ROOT
