@<TRIPOS>MOLECULE
D5Q
   65    69     1     0     0
SMALL
abcg2


@<TRIPOS>ATOM
      1 C01         10.5050    -0.8360    -2.0340 c3         1 D5Q       0.149900
      2 O02          9.2300    -0.2330    -2.0900 os         1 D5Q      -0.343100
      3 C03          8.4000    -0.4000    -1.0350 ca         1 D5Q       0.106100
      4 C04          8.7070    -1.1210     0.1090 ca         1 D5Q      -0.160000
      5 C05          7.7670    -1.2300     1.1310 ca         1 D5Q      -0.161000
      6 C06          6.5210    -0.6290     1.0300 ca         1 D5Q       0.113100
      7 O07          5.5770    -0.6840     1.9930 os         1 D5Q      -0.339100
      8 C08          5.8540    -1.4130     3.1690 c3         1 D5Q       0.147900
      9 C09          6.1970     0.1030    -0.1290 ca         1 D5Q       0.009000
     10 C10          7.1450     0.1970    -1.1400 ca         1 D5Q      -0.113000
     11 C11          4.9050     0.7780    -0.2880 cc         1 D5Q      -0.108000
     12 C12          4.7190     1.9760    -0.9590 cd         1 D5Q      -0.157000
     13 N13          3.4090     2.2910    -0.9760 na         1 D5Q       0.073000
     14 C14          2.8930     3.5090    -1.5700 c3         1 D5Q       0.057900
     15 C15          2.7130     1.3130    -0.3090 cd         1 D5Q      -0.274600
     16 C16          3.6230     0.3690     0.1290 cc         1 D5Q      -0.088000
     17 C17          1.2550     1.3190    -0.1850 c          1 D5Q       0.664700
     18 O18          0.5300     2.0110    -0.8810 o          1 D5Q      -0.604100
     19 N19          0.7830     0.4700     0.7770 ns         1 D5Q      -0.316900
     20 C20         -0.5260     0.1400     1.0970 ca         1 D5Q       0.488900
     21 C21         -1.6500     0.6000     0.4080 ca         1 D5Q      -0.186000
     22 C22         -2.9050     0.1700     0.8310 ca         1 D5Q       0.048000
     23 C23         -2.9860    -0.6910     1.9260 ca         1 D5Q      -0.180000
     24 C24         -1.8090    -1.0860     2.5290 ca         1 D5Q       0.373900
     25 N25         -0.6070    -0.6890     2.1330 nb         1 D5Q      -0.733000
     26 C26         -4.1060     0.6420     0.1540 cc         1 D5Q      -0.145000
     27 C27         -5.3030     0.0490    -0.1770 cd         1 D5Q       0.331500
     28 N28         -6.1290     0.9650    -0.7700 nd         1 D5Q      -0.684000
     29 C29         -5.4560     2.0840    -0.8090 cc         1 D5Q       0.519800
     30 N30         -4.2260     1.9410    -0.2800 na         1 D5Q      -0.273500
     31 S31         -6.0040     3.6130    -1.4430 ss         1 D5Q      -0.350300
     32 C32         -7.7080     3.1850    -1.8540 c3         1 D5Q       0.044900
     33 C33         -5.7400    -1.3400    -0.0210 ca         1 D5Q      -0.126500
     34 C34         -7.0850    -1.6170     0.2320 ca         1 D5Q      -0.064500
     35 C35         -7.5360    -2.9200     0.3640 ca         1 D5Q      -0.158500
     36 C36         -6.6270    -3.9520     0.2350 ca         1 D5Q       0.172000
     37 F37         -7.0560    -5.2180     0.3590 f          1 D5Q      -0.181000
     38 C38         -5.2910    -3.7200    -0.0290 ca         1 D5Q      -0.158500
     39 C39         -4.8560    -2.4110    -0.1620 ca         1 D5Q      -0.064500
     40 H012        11.1030    -0.4580    -1.1990 h1         1 D5Q       0.038367
     41 H011        10.4410    -1.9250    -1.9530 h1         1 D5Q       0.038367
     42 H013        11.0090    -0.5860    -2.9640 h1         1 D5Q       0.038367
     43 H041         9.6630    -1.6110     0.2350 ha         1 D5Q       0.116000
     44 H051         8.0410    -1.7960     2.0110 ha         1 D5Q       0.116000
     45 H081         4.9670    -1.3420     3.7930 h1         1 D5Q       0.039033
     46 H083         6.0530    -2.4680     2.9610 h1         1 D5Q       0.039033
     47 H082         6.7040    -0.9990     3.7180 h1         1 D5Q       0.039033
     48 H101         6.8990     0.7350    -2.0480 ha         1 D5Q       0.127000
     49 H121         5.4480     2.6340    -1.4050 h4         1 D5Q       0.151000
     50 H143         2.2690     3.2920    -2.4320 h1         1 D5Q       0.060367
     51 H141         2.3160     4.0820    -0.8490 h1         1 D5Q       0.060367
     52 H142         3.7390     4.1090    -1.8930 h1         1 D5Q       0.060367
     53 H161         3.3850    -0.5470     0.6450 ha         1 D5Q       0.143000
     54 H191         1.4560     0.0210     1.3810 hn         1 D5Q       0.177000
     55 H211        -1.5470     1.2530    -0.4420 ha         1 D5Q       0.155000
     56 H231        -3.9380    -1.0280     2.3110 ha         1 D5Q       0.139000
     57 H241        -1.8340    -1.7530     3.3830 h4         1 D5Q       0.023100
     58 H301        -3.5500     2.6750    -0.1290 hn         1 D5Q       0.370000
     59 H341        -7.7890    -0.8010     0.3300 ha         1 D5Q       0.126500
     60 H351        -8.5790    -3.1280     0.5630 ha         1 D5Q       0.131000
     61 H381        -4.6010    -4.5460    -0.1440 ha         1 D5Q       0.131000
     62 H391        -3.8160    -2.2310    -0.3950 ha         1 D5Q       0.126500
     63 H321        -7.7440     2.4160    -2.6210 h1         1 D5Q       0.073700
     64 H322        -8.2510     2.8580    -0.9720 h1         1 D5Q       0.073700
     65 H323        -8.1590     4.0980    -2.2370 h1         1 D5Q       0.073700
@<TRIPOS>BOND
     1     1     2 1   
     2     1    40 1   
     3     1    41 1   
     4     1    42 1   
     5     2     3 1   
     6     3     4 ar  
     7     3    10 ar  
     8     4     5 ar  
     9     4    43 1   
    10     5     6 ar  
    11     5    44 1   
    12     6     7 1   
    13     6     9 ar  
    14     7     8 1   
    15     8    45 1   
    16     8    46 1   
    17     8    47 1   
    18     9    10 ar  
    19     9    11 1   
    20    10    48 1   
    21    11    12 2   
    22    11    16 1   
    23    12    13 1   
    24    12    49 1   
    25    13    14 1   
    26    13    15 1   
    27    14    50 1   
    28    14    51 1   
    29    14    52 1   
    30    15    16 2   
    31    15    17 1   
    32    16    53 1   
    33    17    18 2   
    34    17    19 1   
    35    19    20 1   
    36    19    54 1   
    37    20    21 ar  
    38    20    25 ar  
    39    21    22 ar  
    40    21    55 1   
    41    22    23 ar  
    42    22    26 1   
    43    23    24 ar  
    44    23    56 1   
    45    24    25 ar  
    46    24    57 1   
    47    26    27 2   
    48    26    30 1   
    49    27    28 1   
    50    27    33 1   
    51    28    29 2   
    52    29    30 1   
    53    29    31 1   
    54    30    58 1   
    55    31    32 1   
    56    32    63 1   
    57    32    64 1   
    58    32    65 1   
    59    33    34 ar  
    60    33    39 ar  
    61    34    35 ar  
    62    34    59 1   
    63    35    36 ar  
    64    35    60 1   
    65    36    37 1   
    66    36    38 ar  
    67    38    39 ar  
    68    38    61 1   
    69    39    62 1   
@<TRIPOS>SUBSTRUCTURE
     1 D5Q         1 TEMP              0 ****  ****    0 ROOT
