@<TRIPOS>MOLECULE
D5R
   41    41     1     0     0
SMALL
abcg2


@<TRIPOS>ATOM
      1 C1         -25.1410   -30.7410    22.6690 c          1 D5R       0.596100
      2 C2         -24.1760   -30.2760    21.5900 c6         1 D5R      -0.236700
      3 C3         -23.0260   -31.2700    21.3740 c6         1 D5R      -0.049400
      4 C4         -23.4670   -32.7310    21.2160 c6         1 D5R      -0.096000
      5 C5         -24.3410   -33.1210    22.4210 c6         1 D5R      -0.059400
      6 C6         -25.5410   -32.1880    22.6060 c6         1 D5R      -0.182400
      7 C20        -23.3720   -28.8480    17.2900 c3         1 D5R      -0.108100
      8 C7         -24.2100   -32.9760    19.8940 c3         1 D5R      -0.088100
      9 C14        -22.2140   -33.6020    21.2000 c          1 D5R       0.592100
     10 C16        -24.9760   -29.9040    20.3510 c          1 D5R       0.616100
     11 C18        -25.4740   -27.8390    18.1830 c3         1 D5R      -0.108100
     12 C15        -21.4350   -35.8270    21.2150 c3         1 D5R       0.150900
     13 O3         -24.1820   -29.5670    19.3590 os         1 D5R      -0.458100
     14 C17        -24.6620   -29.1200    18.0510 c3         1 D5R       0.206000
     15 C19        -25.4450   -30.2300    17.3630 c3         1 D5R      -0.108100
     16 O4         -25.5420   -29.9830    23.5190 o          1 D5R      -0.499100
     17 O1         -21.0830   -33.1910    21.1320 o          1 D5R      -0.483000
     18 O2         -26.1830   -29.8820    20.3350 o          1 D5R      -0.497000
     19 O          -22.5120   -34.8930    21.2500 os         1 D5R      -0.443100
     20 H1         -23.7300   -29.3350    21.9340 hc         1 D5R       0.099700
     21 H2         -22.4250   -30.9490    20.5240 hc         1 D5R       0.071200
     22 H3         -22.3810   -31.1960    22.2520 hc         1 D5R       0.071200
     23 H4         -24.7110   -34.1410    22.3170 hc         1 D5R       0.057200
     24 H5         -23.7340   -33.0960    23.3310 hc         1 D5R       0.057200
     25 H6         -26.0850   -32.4540    23.5120 hc         1 D5R       0.077700
     26 H7         -26.2410   -32.3070    21.7730 hc         1 D5R       0.077700
     27 H8         -22.7830   -28.0650    17.7700 hc         1 D5R       0.050144
     28 H9         -22.7590   -29.7470    17.2170 hc         1 D5R       0.050144
     29 H10        -23.6050   -28.5190    16.2780 hc         1 D5R       0.050144
     30 H11        -24.4650   -34.0290    19.7730 hc         1 D5R       0.048033
     31 H12        -25.1480   -32.4250    19.8520 hc         1 D5R       0.048033
     32 H13        -23.6080   -32.6700    19.0380 hc         1 D5R       0.048033
     33 H14        -24.9270   -27.0870    18.7530 hc         1 D5R       0.050144
     34 H15        -25.6510   -27.4310    17.1870 hc         1 D5R       0.050144
     35 H16        -26.4420   -28.0010    18.6510 hc         1 D5R       0.050144
     36 H17        -21.8910   -36.8110    21.2700 h1         1 D5R       0.049033
     37 H18        -20.8660   -35.7450    20.2880 h1         1 D5R       0.049033
     38 H19        -20.7620   -35.6920    22.0610 h1         1 D5R       0.049033
     39 H20        -26.3860   -30.4520    17.8610 hc         1 D5R       0.050144
     40 H21        -25.6740   -29.9190    16.3430 hc         1 D5R       0.050144
     41 H22        -24.8550   -31.1460    17.3050 hc         1 D5R       0.050144
@<TRIPOS>BOND
     1     1     2 1   
     2     1     6 1   
     3     1    16 2   
     4     2     3 1   
     5     2    10 1   
     6     2    20 1   
     7     3     4 1   
     8     3    21 1   
     9     3    22 1   
    10     4     5 1   
    11     4     8 1   
    12     4     9 1   
    13     5     6 1   
    14     5    23 1   
    15     5    24 1   
    16     6    25 1   
    17     6    26 1   
    18     7    14 1   
    19     7    27 1   
    20     7    28 1   
    21     7    29 1   
    22     8    30 1   
    23     8    31 1   
    24     8    32 1   
    25     9    17 2   
    26     9    19 1   
    27    10    13 1   
    28    10    18 2   
    29    11    14 1   
    30    11    33 1   
    31    11    34 1   
    32    11    35 1   
    33    12    19 1   
    34    12    36 1   
    35    12    37 1   
    36    12    38 1   
    37    13    14 1   
    38    14    15 1   
    39    15    39 1   
    40    15    40 1   
    41    15    41 1   
@<TRIPOS>SUBSTRUCTURE
     1 D5R         1 TEMP              0 ****  ****    0 ROOT
