@<TRIPOS>MOLECULE
D5R
   41    41     1     0     0
SMALL
No Charge or Current Charge


@<TRIPOS>ATOM
      1 C1         -25.2670   -30.9710    22.5990 c          1 D5R       0.596100
      2 C2         -24.2550   -30.5670    21.5330 c6         1 D5R      -0.236700
      3 C3         -23.2270   -31.6920    21.1730 c6         1 D5R      -0.049400
      4 C4         -23.8440   -33.1140    20.9410 c6         1 D5R      -0.096000
      5 C5         -24.6770   -33.4540    22.2230 c6         1 D5R      -0.059400
      6 C6         -25.7830   -32.4150    22.5520 c6         1 D5R      -0.182400
      7 C20        -23.1040   -28.4780    17.4670 c3         1 D5R      -0.108100
      8 C7         -24.7220   -33.1740    19.6420 c3         1 D5R      -0.088100
      9 C14        -22.6750   -34.1510    20.8070 c          1 D5R       0.592100
     10 C16        -24.9370   -29.9620    20.3120 c          1 D5R       0.616100
     11 C18        -25.2920   -27.6070    18.4040 c3         1 D5R      -0.108100
     12 C15        -20.7400   -35.1220    21.8800 c3         1 D5R       0.150900
     13 O3         -24.0380   -29.4660    19.3960 os         1 D5R      -0.458100
     14 C17        -24.4380   -28.8740    18.1380 c3         1 D5R       0.206000
     15 C19        -25.1700   -29.9330    17.2740 c3         1 D5R      -0.108100
     16 O4         -25.6340   -30.1860    23.4630 o          1 D5R      -0.499100
     17 O1         -22.5140   -34.8580    19.8190 o          1 D5R      -0.483000
     18 O2         -26.1520   -29.9430    20.1860 o          1 D5R      -0.497000
     19 O          -21.8460   -34.2000    21.9010 os         1 D5R      -0.443100
     20 H1         -23.6500   -29.7340    21.9110 hc         1 D5R       0.099700
     21 H2         -22.6220   -31.4010    20.3020 hc         1 D5R       0.071200
     22 H3         -22.5080   -31.7480    22.0030 hc         1 D5R       0.071200
     23 H4         -25.1330   -34.4490    22.1150 hc         1 D5R       0.057200
     24 H5         -24.0120   -33.5290    23.0960 hc         1 D5R       0.057200
     25 H6         -26.3170   -32.6500    23.4820 hc         1 D5R       0.077700
     26 H7         -26.5120   -32.4530    21.7340 hc         1 D5R       0.077700
     27 H8         -22.5530   -27.7610    18.0880 hc         1 D5R       0.050144
     28 H9         -22.4680   -29.3590    17.3160 hc         1 D5R       0.050144
     29 H10        -23.2820   -28.0150    16.4890 hc         1 D5R       0.050144
     30 H11        -25.1200   -34.1840    19.4800 hc         1 D5R       0.048033
     31 H12        -25.5830   -32.5020    19.6710 hc         1 D5R       0.048033
     32 H13        -24.1360   -32.9070    18.7540 hc         1 D5R       0.048033
     33 H14        -24.8180   -26.9690    19.1590 hc         1 D5R       0.050144
     34 H15        -25.3990   -27.0200    17.4840 hc         1 D5R       0.050144
     35 H16        -26.3020   -27.8570    18.7460 hc         1 D5R       0.050144
     36 H17        -20.1680   -35.0530    22.8130 h1         1 D5R       0.049033
     37 H18        -21.0940   -36.1560    21.7740 h1         1 D5R       0.049033
     38 H19        -20.0610   -34.9000    21.0470 h1         1 D5R       0.049033
     39 H20        -26.1720   -30.1540    17.6550 hc         1 D5R       0.050144
     40 H21        -25.2880   -29.5700    16.2460 hc         1 D5R       0.050144
     41 H22        -24.5980   -30.8680    17.2370 hc         1 D5R       0.050144
@<TRIPOS>BOND
     1     1     2 1   
     2     1     6 1   
     3     1    16 2   
     4     2     3 1   
     5     2    10 1   
     6     2    20 1   
     7     3     4 1   
     8     3    21 1   
     9     3    22 1   
    10     4     5 1   
    11     4     8 1   
    12     4     9 1   
    13     5     6 1   
    14     5    23 1   
    15     5    24 1   
    16     6    25 1   
    17     6    26 1   
    18     7    14 1   
    19     7    27 1   
    20     7    28 1   
    21     7    29 1   
    22     8    30 1   
    23     8    31 1   
    24     8    32 1   
    25     9    17 2   
    26     9    19 1   
    27    10    13 1   
    28    10    18 2   
    29    11    14 1   
    30    11    33 1   
    31    11    34 1   
    32    11    35 1   
    33    12    19 1   
    34    12    36 1   
    35    12    37 1   
    36    12    38 1   
    37    13    14 1   
    38    14    15 1   
    39    15    39 1   
    40    15    40 1   
    41    15    41 1   
@<TRIPOS>SUBSTRUCTURE
     1 D5R         1 TEMP              0 ****  ****    0 ROOT
