@<TRIPOS>MOLECULE
D5S
   31    32     1     0     0
SMALL
No Charge or Current Charge


@<TRIPOS>ATOM
      1 C10        145.9970   157.8320   181.5760 ca         1 D5S      -0.034000
      2 C11        148.5100   156.4050   184.9750 ca         1 D5S      -0.034000
      3 C12        146.2600   155.4940   182.1980 ca         1 D5S      -0.061500
      4 C13        148.3540   158.7280   184.2680 ca         1 D5S      -0.061500
      5 C14        145.8840   157.4790   180.2090 ca         1 D5S      -0.280100
      6 C15        149.8620   156.5880   185.3540 ca         1 D5S      -0.280100
      7 C8         146.1820   156.8480   182.5680 ca         1 D5S      -0.166300
      8 C9         147.7560   157.4670   184.4360 ca         1 D5S      -0.166300
      9 C16        146.1500   155.1310   180.8480 ca         1 D5S      -0.220000
     10 C17        149.6920   158.9230   184.6380 ca         1 D5S      -0.220000
     11 C18        145.9640   156.1120   179.8640 ca         1 D5S       0.199600
     12 C19        150.4380   157.8650   185.1760 ca         1 D5S       0.199600
     13 C20        145.6830   158.5540   179.1610 c          1 D5S       0.726600
     14 O1         145.8610   155.7280   178.5680 oh         1 D5S      -0.646600
     15 O2         151.7300   158.0860   185.5240 oh         1 D5S      -0.646600
     16 O3         145.6000   158.2070   177.9900 o          1 D5S      -0.711500
     17 O4         150.0980   154.3540   186.0750 o          1 D5S      -0.711500
     18 O5         145.6090   159.7180   179.5200 o          1 D5S      -0.711500
     19 O6         151.8210   155.6300   186.2380 o          1 D5S      -0.711500
     20 H1         145.9430   158.8770   181.8770 ha         1 D5S       0.112500
     21 H2         148.0360   155.4330   185.0950 ha         1 D5S       0.112500
     22 H3         146.4070   154.7260   182.9540 ha         1 D5S       0.100500
     23 H4         147.7830   159.5540   183.8490 ha         1 D5S       0.100500
     24 H5         145.7220   158.1600   184.2230 hc         1 D5S       0.029200
     25 H6         145.8480   156.4800   184.6690 hc         1 D5S       0.029200
     26 H7         146.2100   154.0840   180.5640 ha         1 D5S       0.095000
     27 H8         150.1510   159.8990   184.5070 ha         1 D5S       0.095000
     28 H9         145.7410   156.5920   178.0750 ho         1 D5S       0.543500
     29 H10        152.0360   157.1970   185.8690 ho         1 D5S       0.543500
     30 C7         146.3030   157.2490   184.0330 c3         1 D5S       0.047200
     31 C21        150.6520   155.4320   185.9320 c          1 D5S       0.726600
@<TRIPOS>BOND
     1     1     5 ar  
     2     1     7 ar  
     3     1    20 1   
     4     2     6 ar  
     5     2     8 ar  
     6     2    21 1   
     7     3     7 ar  
     8     3     9 ar  
     9     3    22 1   
    10     4     8 ar  
    11     4    10 ar  
    12     4    23 1   
    13     5    11 ar  
    14     5    13 1   
    15     6    12 ar  
    16     6    31 1   
    17     7    30 1   
    18     8    30 1   
    19     9    11 ar  
    20     9    26 1   
    21    10    12 ar  
    22    10    27 1   
    23    11    14 1   
    24    12    15 1   
    25    13    16 1   
    26    13    18 1   
    27    14    28 1   
    28    15    29 1   
    29    17    31 1   
    30    19    31 1   
    31    24    30 1   
    32    25    30 1   
@<TRIPOS>SUBSTRUCTURE
     1 D5S         1 TEMP              0 ****  ****    0 ROOT
