@<TRIPOS>MOLECULE
D5S
   31    32     1     0     0
SMALL
bcc


@<TRIPOS>ATOM
      1 C10        145.6240   157.7420   181.6340 ca         1 D5S      -0.052000
      2 C11        148.4340   156.5430   185.4620 ca         1 D5S      -0.052000
      3 C12        146.9120   155.7390   181.6480 ca         1 D5S      -0.079500
      4 C13        148.8740   157.8330   183.5110 ca         1 D5S      -0.079500
      5 C14        145.4590   157.6570   180.2510 ca         1 D5S      -0.280100
      6 C15        149.7460   156.7060   185.8990 ca         1 D5S      -0.280100
      7 C8         146.3430   156.8030   182.3550 ca         1 D5S      -0.166300
      8 C9         147.9710   157.0900   184.2730 ca         1 D5S      -0.166300
      9 C16        146.7680   155.6220   180.2790 ca         1 D5S      -0.238000
     10 C17        150.1830   158.0190   183.9170 ca         1 D5S      -0.238000
     11 C18        146.0430   156.5800   179.5600 ca         1 D5S       0.199600
     12 C19        150.6400   157.4570   185.1130 ca         1 D5S       0.199600
     13 C20        144.6750   158.6990   179.4950 c          1 D5S       0.937200
     14 O1         145.9120   156.4590   178.2410 oh         1 D5S      -0.607600
     15 O2         151.9060   157.6320   185.4880 oh         1 D5S      -0.607600
     16 O3         144.5980   158.5160   178.2370 o          1 D5S      -0.816800
     17 O4         149.4270   155.4460   187.8850 o          1 D5S      -0.816800
     18 O5         144.1650   159.6400   180.1080 o          1 D5S      -0.816800
     19 O6         151.4450   156.2880   187.4730 o          1 D5S      -0.816800
     20 H1         145.1760   158.5810   182.1540 ha         1 D5S       0.130500
     21 H2         147.7580   155.9580   186.0750 ha         1 D5S       0.130500
     22 H3         147.4830   154.9890   182.1830 ha         1 D5S       0.118500
     23 H4         148.5500   158.2770   182.5760 ha         1 D5S       0.118500
     24 H5         145.9330   157.7510   184.2190 hc         1 D5S       0.029200
     25 H6         146.1270   156.0230   184.3350 hc         1 D5S       0.029200
     26 H7         147.2160   154.7890   179.7500 ha         1 D5S       0.113000
     27 H8         150.8660   158.5980   183.3080 ha         1 D5S       0.113000
     28 H9         145.3440   157.2800   177.9910 ho         1 D5S       0.504500
     29 H10        151.9550   157.1130   186.3750 ho         1 D5S       0.504500
     30 C7         146.5310   156.9140   183.8450 c3         1 D5S       0.047200
     31 C21        150.2200   156.0880   187.1920 c          1 D5S       0.937200
@<TRIPOS>BOND
     1     1     5 ar  
     2     1     7 ar  
     3     1    20 1   
     4     2     6 ar  
     5     2     8 ar  
     6     2    21 1   
     7     3     7 ar  
     8     3     9 ar  
     9     3    22 1   
    10     4     8 ar  
    11     4    10 ar  
    12     4    23 1   
    13     5    11 ar  
    14     5    13 1   
    15     6    12 ar  
    16     6    31 1   
    17     7    30 1   
    18     8    30 1   
    19     9    11 ar  
    20     9    26 1   
    21    10    12 ar  
    22    10    27 1   
    23    11    14 1   
    24    12    15 1   
    25    13    16 1   
    26    13    18 1   
    27    14    28 1   
    28    15    29 1   
    29    17    31 1   
    30    19    31 1   
    31    24    30 1   
    32    25    30 1   
@<TRIPOS>SUBSTRUCTURE
     1 D5S         1 TEMP              0 ****  ****    0 ROOT
