@<TRIPOS>MOLECULE
D5T
   78    82     1     0     0
SMALL
No Charge or Current Charge


@<TRIPOS>ATOM
      1 C1           3.7230     5.6930     1.2140 c3         1 D5T       0.144900
      2 O1           2.6390     4.7700     1.0080 os         1 D5T      -0.317100
      3 C2           2.8430     3.4630     0.5960 ca         1 D5T       0.125100
      4 C3           4.1370     2.9540     0.3470 ca         1 D5T      -0.184000
      5 C4           4.3110     1.6220    -0.0650 ca         1 D5T      -0.092000
      6 C5           3.2020     0.7650    -0.2300 ca         1 D5T      -0.125900
      7 C6           3.3780    -0.6600    -0.6860 ce         1 D5T       0.410900
      8 N1           2.3680    -1.2900    -1.2120 n2         1 D5T      -0.457300
      9 N2           2.1660    -2.6440    -0.9620 n          1 D5T      -0.179800
     10 C7           0.7660    -3.0720    -0.6870 c6         1 D5T       0.135700
     11 C8           0.3150    -2.5890     0.7200 c6         1 D5T      -0.112900
     12 C9          -1.1590    -2.9620     0.9980 c6         1 D5T       0.097000
     13 N3          -2.0360    -2.4430    -0.0820 n          1 D5T      -0.403800
     14 C10         -2.8630    -1.3080     0.1060 c          1 D5T       0.602100
     15 O2          -2.8660    -0.7100     1.1760 o          1 D5T      -0.604100
     16 C11         -3.7850    -0.8670    -1.0560 c3         1 D5T       0.003000
     17 N4          -4.6870     0.2920    -0.7400 n          1 D5T      -0.368400
     18 C12         -5.8530     0.0310     0.0030 c          1 D5T       0.586500
     19 O3          -6.1370    -1.0990     0.3780 o          1 D5T      -0.524000
     20 C13         -6.7630     1.2090     0.3750 c6         1 D5T      -0.154400
     21 C14         -6.0250     2.5650     0.5060 c6         1 D5T      -0.036000
     22 C15         -5.1120     2.5760     1.7700 c3         1 D5T      -0.092600
     23 C16         -7.0540     3.7230     0.6630 c3         1 D5T      -0.092600
     24 C17         -5.1830     2.7700    -0.7770 c6         1 D5T      -0.154400
     25 C18         -4.2760     1.5830    -1.1210 c          1 D5T       0.586500
     26 O4          -3.2070     1.7800    -1.6830 o          1 D5T      -0.524000
     27 C19         -1.6810    -2.9930    -1.4160 c6         1 D5T       0.097000
     28 C20         -0.2350    -2.5880    -1.7780 c6         1 D5T      -0.112900
     29 C21          3.2750    -3.5280    -0.8380 c          1 D5T       0.561000
     30 O5           3.1370    -4.7380    -0.6930 o          1 D5T      -0.534000
     31 C22          4.6670    -2.8570    -0.9330 c6         1 D5T      -0.141700
     32 C23          5.8730    -3.7060    -0.4380 c6         1 D5T      -0.029200
     33 C24          6.0540    -3.6550     1.0700 c2         1 D5T      -0.211200
     34 C25          5.4800    -2.7270     1.8520 c2         1 D5T      -0.223200
     35 C26          4.5720    -1.6250     1.3270 c6         1 D5T      -0.038200
     36 C27          4.6170    -1.4610    -0.2230 c6         1 D5T      -0.129000
     37 C28          1.9060     1.2880    -0.0030 ca         1 D5T      -0.143000
     38 C29          1.7200     2.6230     0.4200 ca         1 D5T       0.112100
     39 O6           0.4570     3.1390     0.6690 os         1 D5T      -0.327100
     40 C30         -0.7400     2.3480     0.5530 c3         1 D5T       0.145900
     41 H1           4.4080     5.3250     1.9880 h1         1 D5T       0.040367
     42 H2           4.2880     5.8450     0.2850 h1         1 D5T       0.040367
     43 H3           3.3350     6.6670     1.5390 h1         1 D5T       0.040367
     44 H4           5.0200     3.5760     0.4650 ha         1 D5T       0.119000
     45 H5           5.3200     1.2680    -0.2580 ha         1 D5T       0.113000
     46 H8           0.7310    -4.1710    -0.6840 h1         1 D5T       0.080700
     47 H9           0.9610    -3.0270     1.4920 hc         1 D5T       0.063200
     48 H10          0.4260    -1.5000     0.8010 hc         1 D5T       0.063200
     49 H11         -1.2580    -4.0560     1.0450 h1         1 D5T       0.058200
     50 H12         -1.4640    -2.5700     1.9790 h1         1 D5T       0.058200
     51 H13         -3.1460    -0.6290    -1.9150 h1         1 D5T       0.086200
     52 H14         -4.3890    -1.7360    -1.3430 h1         1 D5T       0.086200
     53 H15         -7.4690     1.2980    -0.4610 hc         1 D5T       0.077950
     54 H16         -7.3610     0.9520     1.2600 hc         1 D5T       0.077950
     55 H17         -4.3540     1.7840     1.7390 hc         1 D5T       0.045367
     56 H18         -4.5790     3.5300     1.8690 hc         1 D5T       0.045367
     57 H19         -5.6960     2.4300     2.6860 hc         1 D5T       0.045367
     58 H20         -7.6710     3.5920     1.5610 hc         1 D5T       0.045367
     59 H21         -6.5530     4.6950     0.7460 hc         1 D5T       0.045367
     60 H22         -7.7330     3.7770    -0.1960 hc         1 D5T       0.045367
     61 H23         -5.8840     2.8470    -1.6190 hc         1 D5T       0.077950
     62 H24         -4.5960     3.6980    -0.7690 hc         1 D5T       0.077950
     63 H25         -1.7560    -4.0900    -1.3820 h1         1 D5T       0.058200
     64 H26         -2.3700    -2.6550    -2.2010 h1         1 D5T       0.058200
     65 H27         -0.1910    -1.4960    -1.8870 hc         1 D5T       0.063200
     66 H28          0.0400    -3.0150    -2.7520 hc         1 D5T       0.063200
     67 H29          4.7900    -2.6340    -2.0020 hc         1 D5T       0.077700
     68 H30          5.7680    -4.7480    -0.7710 hc         1 D5T       0.062700
     69 H31          6.7940    -3.3360    -0.9090 hc         1 D5T       0.062700
     70 H32          6.6960    -4.4260     1.5030 ha         1 D5T       0.177000
     71 H33          5.6470    -2.7360     2.9310 ha         1 D5T       0.177000
     72 H34          3.5440    -1.8420     1.6520 hc         1 D5T       0.058700
     73 H35          4.8430    -0.6720     1.8030 hc         1 D5T       0.058700
     74 H36          5.5310    -0.9190    -0.4960 hc         1 D5T       0.074700
     75 H37          1.0470     0.6400    -0.1450 ha         1 D5T       0.143000
     76 H38         -1.6240     2.9550     0.7850 h1         1 D5T       0.046367
     77 H39         -0.8520     1.9610    -0.4670 h1         1 D5T       0.046367
     78 H40         -0.7180     1.5000     1.2500 h1         1 D5T       0.046367
@<TRIPOS>BOND
     1     1     2 1   
     2     1    41 1   
     3     1    42 1   
     4     1    43 1   
     5     2     3 1   
     6     3     4 ar  
     7     3    38 ar  
     8     4     5 ar  
     9     4    44 1   
    10     5     6 ar  
    11     5    45 1   
    12     6     7 1   
    13     6    37 ar  
    14     7     8 2   
    15     7    36 1   
    16     8     9 1   
    17     9    10 1   
    18     9    29 1   
    19    10    11 1   
    20    10    28 1   
    21    10    46 1   
    22    11    12 1   
    23    11    47 1   
    24    11    48 1   
    25    12    13 1   
    26    12    49 1   
    27    12    50 1   
    28    13    14 1   
    29    13    27 1   
    30    14    15 2   
    31    14    16 1   
    32    16    17 1   
    33    16    51 1   
    34    16    52 1   
    35    17    18 1   
    36    17    25 1   
    37    18    19 2   
    38    18    20 1   
    39    20    21 1   
    40    20    53 1   
    41    20    54 1   
    42    21    22 1   
    43    21    23 1   
    44    21    24 1   
    45    22    55 1   
    46    22    56 1   
    47    22    57 1   
    48    23    58 1   
    49    23    59 1   
    50    23    60 1   
    51    24    25 1   
    52    24    61 1   
    53    24    62 1   
    54    25    26 2   
    55    27    28 1   
    56    27    63 1   
    57    27    64 1   
    58    28    65 1   
    59    28    66 1   
    60    29    30 2   
    61    29    31 1   
    62    31    32 1   
    63    31    36 1   
    64    31    67 1   
    65    32    33 1   
    66    32    68 1   
    67    32    69 1   
    68    33    34 2   
    69    33    70 1   
    70    34    35 1   
    71    34    71 1   
    72    35    36 1   
    73    35    72 1   
    74    35    73 1   
    75    36    74 1   
    76    37    38 ar  
    77    37    75 1   
    78    38    39 1   
    79    39    40 1   
    80    40    76 1   
    81    40    77 1   
    82    40    78 1   
@<TRIPOS>SUBSTRUCTURE
     1 D5T         1 TEMP              0 ****  ****    0 ROOT
