@<TRIPOS>MOLECULE
D5T
   78    82     1     0     0
SMALL
bcc


@<TRIPOS>ATOM
      1 C1           4.5310     5.7380     0.6890 c3         1 D5T       0.121700
      2 O1           3.3360     5.0180     0.4530 os         1 D5T      -0.293900
      3 C2           3.4120     3.6840     0.3390 ca         1 D5T       0.125100
      4 C3           4.5700     2.9370     0.4510 ca         1 D5T      -0.202000
      5 C4           4.5400     1.5500     0.3070 ca         1 D5T      -0.110000
      6 C5           3.3490     0.8910     0.0500 ca         1 D5T      -0.125900
      7 C6           3.2880    -0.5720    -0.0830 ce         1 D5T       0.410900
      8 N1           2.1390    -1.0960    -0.2760 n2         1 D5T      -0.457300
      9 N2           2.0110    -2.4510    -0.3450 n          1 D5T      -0.246800
     10 C7           0.6270    -2.9030    -0.2540 c6         1 D5T       0.135700
     11 C8           0.0030    -2.5060     1.0810 c6         1 D5T      -0.112900
     12 C9          -1.4580    -2.9350     1.1310 c6         1 D5T       0.097000
     13 N3          -2.1840    -2.3760     0.0040 n          1 D5T      -0.470800
     14 C10         -3.0710    -1.3790     0.1770 c          1 D5T       0.669100
     15 O2          -3.4020    -0.9610     1.2760 o          1 D5T      -0.604100
     16 C11         -3.6780    -0.7790    -1.0890 c3         1 D5T       0.003000
     17 N4          -4.6340     0.2500    -0.7550 n          1 D5T      -0.502400
     18 C12         -5.9300    -0.1500    -0.4610 c          1 D5T       0.729000
     19 O3          -6.2280    -1.3230    -0.5080 o          1 D5T      -0.599500
     20 C13         -6.9290     0.9260    -0.1480 c6         1 D5T      -0.154400
     21 C14         -6.3400     2.1280     0.5830 c6         1 D5T      -0.036000
     22 C15         -5.8970     1.7330     1.9920 c3         1 D5T      -0.092600
     23 C16         -7.3880     3.2320     0.6690 c3         1 D5T      -0.092600
     24 C17         -5.1510     2.6110    -0.2400 c6         1 D5T      -0.154400
     25 C18         -4.1510     1.5390    -0.5690 c          1 D5T       0.729000
     26 O4          -2.9730     1.7730    -0.7170 o          1 D5T      -0.599500
     27 C19         -1.6580    -2.8120    -1.2780 c6         1 D5T       0.097000
     28 C20         -0.2020    -2.3880    -1.4290 c6         1 D5T      -0.112900
     29 C21          3.0320    -3.3070    -0.6450 c          1 D5T       0.703500
     30 O5           2.8630    -4.5080    -0.7480 o          1 D5T      -0.609500
     31 C22          4.3540    -2.6190    -0.8940 c6         1 D5T      -0.141700
     32 C23          5.5430    -3.5640    -0.8010 c6         1 D5T      -0.029200
     33 C24          5.9580    -3.8200     0.6140 c2         1 D5T      -0.161200
     34 C25          5.5590    -3.0820     1.6460 c2         1 D5T      -0.173200
     35 C26          4.6530    -1.8970     1.5180 c6         1 D5T      -0.038200
     36 C27          4.5030    -1.4370     0.0590 c6         1 D5T      -0.129000
     37 C28          2.1710     1.6510    -0.0600 ca         1 D5T      -0.161000
     38 C29          2.1880     3.0220     0.0820 ca         1 D5T       0.112100
     39 O6           1.1080     3.8170    -0.0060 os         1 D5T      -0.303900
     40 C30         -0.1470     3.2070    -0.2390 c3         1 D5T       0.122700
     41 H1           4.9970     5.4550     1.6360 h1         1 D5T       0.040367
     42 H2           5.2560     5.5940    -0.1160 h1         1 D5T       0.040367
     43 H3           4.2550     6.7880     0.7320 h1         1 D5T       0.040367
     44 H4           5.5190     3.4150     0.6520 ha         1 D5T       0.137000
     45 H5           5.4710     1.0090     0.4060 ha         1 D5T       0.131000
     46 H8           0.6540    -3.9920    -0.3070 h1         1 D5T       0.080700
     47 H9           0.5490    -2.9760     1.9030 hc         1 D5T       0.063200
     48 H10          0.0670    -1.4240     1.2220 hc         1 D5T       0.063200
     49 H11         -1.5360    -4.0250     1.0810 h1         1 D5T       0.058200
     50 H12         -1.9230    -2.6180     2.0600 h1         1 D5T       0.058200
     51 H13         -2.9010    -0.3440    -1.7140 h1         1 D5T       0.086200
     52 H14         -4.1760    -1.5450    -1.6810 h1         1 D5T       0.086200
     53 H15         -7.3570     1.2500    -1.1050 hc         1 D5T       0.077950
     54 H16         -7.7420     0.4730     0.4220 hc         1 D5T       0.077950
     55 H17         -5.1390     0.9480     1.9910 hc         1 D5T       0.045367
     56 H18         -5.4800     2.5930     2.5190 hc         1 D5T       0.045367
     57 H19         -6.7470     1.3690     2.5730 hc         1 D5T       0.045367
     58 H20         -8.2600     2.8970     1.2330 hc         1 D5T       0.045367
     59 H21         -6.9870     4.1140     1.1730 hc         1 D5T       0.045367
     60 H22         -7.7270     3.5370    -0.3230 hc         1 D5T       0.045367
     61 H23         -5.5040     3.0130    -1.1980 hc         1 D5T       0.077950
     62 H24         -4.6170     3.4200     0.2610 hc         1 D5T       0.077950
     63 H25         -1.7390    -3.9020    -1.3250 h1         1 D5T       0.058200
     64 H26         -2.2520    -2.4250    -2.1020 h1         1 D5T       0.058200
     65 H27         -0.1410    -1.2980    -1.4830 hc         1 D5T       0.063200
     66 H28          0.1930    -2.7860    -2.3670 hc         1 D5T       0.063200
     67 H29          4.2970    -2.2250    -1.9190 hc         1 D5T       0.077700
     68 H30          5.3160    -4.5060    -1.3020 hc         1 D5T       0.062700
     69 H31          6.3830    -3.1330    -1.3560 hc         1 D5T       0.062700
     70 H32          6.6280    -4.6550     0.7850 ha         1 D5T       0.127000
     71 H33          5.8900    -3.3360     2.6470 ha         1 D5T       0.127000
     72 H34          3.6770    -2.1340     1.9560 hc         1 D5T       0.058700
     73 H35          5.0400    -1.0670     2.1150 hc         1 D5T       0.058700
     74 H36          5.4050    -0.8970    -0.2310 hc         1 D5T       0.074700
     75 H37          1.2440     1.1320    -0.2600 ha         1 D5T       0.161000
     76 H38         -0.8820     4.0070    -0.2640 h1         1 D5T       0.046367
     77 H39         -0.1700     2.6770    -1.1940 h1         1 D5T       0.046367
     78 H40         -0.4140     2.5080     0.5580 h1         1 D5T       0.046367
@<TRIPOS>BOND
     1     1     2 1   
     2     1    41 1   
     3     1    42 1   
     4     1    43 1   
     5     2     3 1   
     6     3     4 ar  
     7     3    38 ar  
     8     4     5 ar  
     9     4    44 1   
    10     5     6 ar  
    11     5    45 1   
    12     6     7 1   
    13     6    37 ar  
    14     7     8 2   
    15     7    36 1   
    16     8     9 1   
    17     9    10 1   
    18     9    29 1   
    19    10    11 1   
    20    10    28 1   
    21    10    46 1   
    22    11    12 1   
    23    11    47 1   
    24    11    48 1   
    25    12    13 1   
    26    12    49 1   
    27    12    50 1   
    28    13    14 1   
    29    13    27 1   
    30    14    15 2   
    31    14    16 1   
    32    16    17 1   
    33    16    51 1   
    34    16    52 1   
    35    17    18 1   
    36    17    25 1   
    37    18    19 2   
    38    18    20 1   
    39    20    21 1   
    40    20    53 1   
    41    20    54 1   
    42    21    22 1   
    43    21    23 1   
    44    21    24 1   
    45    22    55 1   
    46    22    56 1   
    47    22    57 1   
    48    23    58 1   
    49    23    59 1   
    50    23    60 1   
    51    24    25 1   
    52    24    61 1   
    53    24    62 1   
    54    25    26 2   
    55    27    28 1   
    56    27    63 1   
    57    27    64 1   
    58    28    65 1   
    59    28    66 1   
    60    29    30 2   
    61    29    31 1   
    62    31    32 1   
    63    31    36 1   
    64    31    67 1   
    65    32    33 1   
    66    32    68 1   
    67    32    69 1   
    68    33    34 2   
    69    33    70 1   
    70    34    35 1   
    71    34    71 1   
    72    35    36 1   
    73    35    72 1   
    74    35    73 1   
    75    36    74 1   
    76    37    38 ar  
    77    37    75 1   
    78    38    39 1   
    79    39    40 1   
    80    40    76 1   
    81    40    77 1   
    82    40    78 1   
@<TRIPOS>SUBSTRUCTURE
     1 D5T         1 TEMP              0 ****  ****    0 ROOT
