@<TRIPOS>MOLECULE
D5U
   36    37     1     0     0
SMALL
bcc


@<TRIPOS>ATOM
      1 O3          -2.1490    -1.3520    14.5360 o          1 D5U      -0.827800
      2 C17         -2.7710    -0.3500    14.9410 c          1 D5U       0.924200
      3 O4          -3.0380    -0.0660    16.1240 o          1 D5U      -0.827800
      4 C12         -3.3140     0.6150    13.8850 ca         1 D5U      -0.114600
      5 C13         -4.5740     1.1710    14.1240 ca         1 D5U      -0.112000
      6 C15         -5.1920     2.0100    13.2110 ca         1 D5U      -0.161000
      7 C16         -4.5330     2.3360    12.0340 ca         1 D5U      -0.161000
      8 C14         -3.2690     1.8190    11.7980 ca         1 D5U      -0.154000
      9 C11         -2.6410     0.9560    12.7000 ca         1 D5U      -0.064300
     10 C10         -1.2520     0.4650    12.3640 c3         1 D5U      -0.020100
     11 C9          -0.2850     1.5770    11.9430 c3         1 D5U      -0.160400
     12 C8          -0.2420     2.7550    12.8870 c          1 D5U       0.612700
     13 O2          -0.2940     3.8890    12.4550 o          1 D5U      -0.568100
     14 C3          -0.2180     2.5530    14.3670 ca         1 D5U      -0.191600
     15 C1          -0.9890     3.4230    15.1360 ca         1 D5U      -0.043000
     16 C2          -1.0440     3.3190    16.5150 ca         1 D5U      -0.169000
     17 C4          -0.2890     2.3420    17.1460 ca         1 D5U      -0.056000
     18 C6           0.5080     1.4780    16.4110 ca         1 D5U      -0.210000
     19 C5           0.5500     1.5760    15.0200 ca         1 D5U       0.190100
     20 O1           1.3300     0.7990    14.2530 os         1 D5U      -0.326900
     21 C7           1.9940    -0.3030    14.8420 c3         1 D5U       0.128700
     22 H2          -5.0810     0.9280    15.0490 ha         1 D5U       0.139000
     23 H3          -6.1760     2.4110    13.4200 ha         1 D5U       0.102000
     24 H4          -4.9950     2.9920    11.3080 ha         1 D5U       0.101000
     25 H5          -2.7610     2.0900    10.8800 ha         1 D5U       0.104000
     26 H6          -1.3110    -0.2470    11.5360 hc         1 D5U       0.068200
     27 H7          -0.8440    -0.0940    13.1980 hc         1 D5U       0.068200
     28 H8           0.7180     1.1550    11.8540 hc         1 D5U       0.050700
     29 H9          -0.5380     1.9730    10.9590 hc         1 D5U       0.050700
     30 H10         -1.5810     4.1790    14.6350 ha         1 D5U       0.139000
     31 H11         -1.6660     3.9920    17.0890 ha         1 D5U       0.124000
     32 H12         -0.3120     2.2460    18.2240 ha         1 D5U       0.119000
     33 H13          1.0980     0.7390    16.9340 ha         1 D5U       0.128000
     34 H14          2.4780    -0.8380    14.0290 h1         1 D5U       0.039367
     35 H15          2.7560     0.0140    15.5570 h1         1 D5U       0.039367
     36 H16          1.2920    -0.9760    15.3420 h1         1 D5U       0.039367
@<TRIPOS>BOND
     1     1     2 1   
     2     2     3 1   
     3     2     4 1   
     4     4     5 ar  
     5     4     9 ar  
     6     5     6 ar  
     7     5    22 1   
     8     6     7 ar  
     9     6    23 1   
    10     7     8 ar  
    11     7    24 1   
    12     8     9 ar  
    13     8    25 1   
    14     9    10 1   
    15    10    11 1   
    16    10    26 1   
    17    10    27 1   
    18    11    12 1   
    19    11    28 1   
    20    11    29 1   
    21    12    13 2   
    22    12    14 1   
    23    14    15 ar  
    24    14    19 ar  
    25    15    16 ar  
    26    15    30 1   
    27    16    17 ar  
    28    16    31 1   
    29    17    18 ar  
    30    17    32 1   
    31    18    19 ar  
    32    18    33 1   
    33    19    20 1   
    34    20    21 1   
    35    21    34 1   
    36    21    35 1   
    37    21    36 1   
@<TRIPOS>SUBSTRUCTURE
     1 D5U         1 TEMP              0 ****  ****    0 ROOT
