@<TRIPOS>MOLECULE
D5U
   36    37     1     0     0
SMALL
No Charge or Current Charge


@<TRIPOS>ATOM
      1 O3          -4.4770    -0.5030    14.9160 o          1 D5U      -0.722500
      2 C17         -4.4490     0.7030    14.7150 c          1 D5U       0.713600
      3 O4          -4.5630     1.5370    15.6020 o          1 D5U      -0.722500
      4 C12         -4.3960     1.1910    13.2870 ca         1 D5U      -0.114600
      5 C13         -5.5050     1.9110    12.7900 ca         1 D5U      -0.094000
      6 C15         -5.5300     2.3710    11.4650 ca         1 D5U      -0.143000
      7 C16         -4.4450     2.1150    10.6170 ca         1 D5U      -0.143000
      8 C14         -3.3320     1.4090    11.0980 ca         1 D5U      -0.136000
      9 C11         -3.2840     0.9490    12.4320 ca         1 D5U      -0.064300
     10 C10         -2.0260     0.2060    12.8980 c3         1 D5U      -0.020100
     11 C9          -0.7420     1.0700    12.8560 c3         1 D5U      -0.160400
     12 C8          -0.7730     2.1880    13.9130 c          1 D5U       0.612700
     13 O2          -1.3100     3.2650    13.6780 o          1 D5U      -0.568100
     14 C3          -0.1490     1.9330    15.2520 ca         1 D5U      -0.191600
     15 C1          -0.9480     2.0200    16.4090 ca         1 D5U      -0.025000
     16 C2          -0.3910     1.7800    17.6740 ca         1 D5U      -0.151000
     17 C4           0.9700     1.4610    17.7940 ca         1 D5U      -0.038000
     18 C6           1.7770     1.3910    16.6460 ca         1 D5U      -0.192000
     19 C5           1.2230     1.6330    15.3690 ca         1 D5U       0.190100
     20 O1           1.9960     1.6150    14.2240 os         1 D5U      -0.350100
     21 C7           3.4040     1.3220    14.2470 c3         1 D5U       0.151900
     22 H2          -6.3560     2.1050    13.4400 ha         1 D5U       0.121000
     23 H3          -6.3930     2.9210    11.0950 ha         1 D5U       0.084000
     24 H4          -4.4640     2.4660     9.5880 ha         1 D5U       0.083000
     25 H5          -2.4990     1.2190    10.4260 ha         1 D5U       0.086000
     26 H6          -1.8740    -0.6660    12.2500 hc         1 D5U       0.068200
     27 H7          -2.1310    -0.2010    13.9100 hc         1 D5U       0.068200
     28 H8           0.0850     0.3860    13.0750 hc         1 D5U       0.050700
     29 H9          -0.6160     1.5050    11.8590 hc         1 D5U       0.050700
     30 H10         -2.0050     2.2680    16.3260 ha         1 D5U       0.121000
     31 H11         -1.0140     1.8410    18.5630 ha         1 D5U       0.106000
     32 H12          1.4010     1.2760    18.7750 ha         1 D5U       0.101000
     33 H13          2.8300     1.1570    16.7710 ha         1 D5U       0.110000
     34 H14          3.8160     1.3590    13.2310 h1         1 D5U       0.039367
     35 H15          3.9460     2.0550    14.8590 h1         1 D5U       0.039367
     36 H16          3.5870     0.3190    14.6520 h1         1 D5U       0.039367
@<TRIPOS>BOND
     1     1     2 1   
     2     2     3 1   
     3     2     4 1   
     4     4     5 ar  
     5     4     9 ar  
     6     5     6 ar  
     7     5    22 1   
     8     6     7 ar  
     9     6    23 1   
    10     7     8 ar  
    11     7    24 1   
    12     8     9 ar  
    13     8    25 1   
    14     9    10 1   
    15    10    11 1   
    16    10    26 1   
    17    10    27 1   
    18    11    12 1   
    19    11    28 1   
    20    11    29 1   
    21    12    13 2   
    22    12    14 1   
    23    14    15 ar  
    24    14    19 ar  
    25    15    16 ar  
    26    15    30 1   
    27    16    17 ar  
    28    16    31 1   
    29    17    18 ar  
    30    17    32 1   
    31    18    19 ar  
    32    18    33 1   
    33    19    20 1   
    34    20    21 1   
    35    21    34 1   
    36    21    35 1   
    37    21    36 1   
@<TRIPOS>SUBSTRUCTURE
     1 D5U         1 TEMP              0 ****  ****    0 ROOT
