@<TRIPOS>MOLECULE
D5V
   32    34     1     0     0
SMALL
No Charge or Current Charge


@<TRIPOS>ATOM
      1 C4          -4.3710     0.7380    11.8280 ca         1 D5V      -0.072500
      2 C5          -5.5900     0.2100    11.3680 ca         1 D5V      -0.116000
      3 C6          -1.0790     2.5090    10.1730 c6         1 D5V      -0.026700
      4 C7           0.2440     3.2370    10.5460 c6         1 D5V       0.185300
      5 C8           0.7020     4.2220     9.4100 c6         1 D5V       0.148500
      6 C9          -0.5550     4.8990     8.7580 c5         1 D5V       0.120300
      7 C10         -1.1740     4.0360     7.6050 c5         1 D5V       0.123600
      8 C11         -2.1430     3.5380     9.6450 c5         1 D5V       0.381300
      9 O2           1.2830     2.2850    10.8480 oh         1 D5V      -0.667000
     10 N            1.7690     5.1280     9.9290 n8         1 D5V      -0.992200
     11 O1          -1.6420     4.8880     9.7150 os         1 D5V      -0.429000
     12 O           -2.3170     3.3880     8.2220 os         1 D5V      -0.466000
     13 S           -1.7310     1.5040    11.5950 ss         1 D5V      -0.211000
     14 C3          -3.2640     0.8230    10.9650 ca         1 D5V      -0.116000
     15 C2          -3.3780     0.3600     9.6380 ca         1 D5V      -0.072500
     16 C1          -4.5980    -0.1670     9.1790 ca         1 D5V      -0.116000
     17 C           -5.7050    -0.2410    10.0420 ca         1 D5V      -0.089000
     18 H1          -4.2880     1.0850    12.8560 ha         1 D5V       0.124500
     19 H2          -6.4440     0.1500    12.0380 ha         1 D5V       0.116500
     20 H3          -0.8540     1.7990     9.3660 h1         1 D5V       0.098700
     21 H4           0.0310     3.8450    11.4400 h1         1 D5V       0.073700
     22 H5           1.1940     3.6160     8.6330 h1         1 D5V       0.038700
     23 H6          -0.3230     5.9240     8.4390 h1         1 D5V       0.102700
     24 H7          -0.4800     3.2790     7.2150 h1         1 D5V       0.059200
     25 H8          -1.5220     4.6560     6.7680 h1         1 D5V       0.059200
     26 H9          -3.1060     3.4440    10.1670 h2         1 D5V       0.118700
     27 H10          0.9220     1.6930    11.5450 ho         1 D5V       0.462000
     28 H11          2.4380     4.5470    10.4500 hn         1 D5V       0.403500
     29 H12          2.3250     5.4780     9.1400 hn         1 D5V       0.403500
     30 H14         -2.5300     0.3960     8.9610 ha         1 D5V       0.124500
     31 H15         -4.6840    -0.5220     8.1540 ha         1 D5V       0.116500
     32 H16         -6.6480    -0.6500     9.6850 ha         1 D5V       0.116000
@<TRIPOS>BOND
     1     1     2 ar  
     2     1    14 ar  
     3     1    18 1   
     4     2    17 ar  
     5     2    19 1   
     6     3     4 1   
     7     3     8 1   
     8     3    13 1   
     9     3    20 1   
    10     4     5 1   
    11     4     9 1   
    12     4    21 1   
    13     5     6 1   
    14     5    10 1   
    15     5    22 1   
    16     6     7 1   
    17     6    11 1   
    18     6    23 1   
    19     7    12 1   
    20     7    24 1   
    21     7    25 1   
    22     8    11 1   
    23     8    12 1   
    24     8    26 1   
    25     9    27 1   
    26    10    28 1   
    27    10    29 1   
    28    13    14 1   
    29    14    15 ar  
    30    15    16 ar  
    31    15    30 1   
    32    16    17 ar  
    33    16    31 1   
    34    17    32 1   
@<TRIPOS>SUBSTRUCTURE
     1 D5V         1 TEMP              0 ****  ****    0 ROOT
