@<TRIPOS>MOLECULE
D5V
   32    34     1     0     0
SMALL
bcc


@<TRIPOS>ATOM
      1 C4          -4.6850     1.0570    11.3830 ca         1 D5V      -0.090500
      2 C5          -5.5860     0.0970    10.9390 ca         1 D5V      -0.134000
      3 C6          -1.5360     2.9000    10.1350 c6         1 D5V      -0.074600
      4 C7          -0.0150     3.0160    10.2820 c6         1 D5V       0.162100
      5 C8           0.5750     3.9060     9.1910 c6         1 D5V       0.148500
      6 C9          -0.3200     5.1540     9.0220 c5         1 D5V       0.097100
      7 C10         -1.3100     5.0350     7.8650 c5         1 D5V       0.100400
      8 C11         -2.1550     4.2850     9.8400 c5         1 D5V       0.334900
      9 O2           0.6080     1.7570    10.2170 oh         1 D5V      -0.604800
     10 N            1.9180     4.3090     9.5780 n8         1 D5V      -0.881800
     11 O1          -1.2150     5.2800    10.1230 os         1 D5V      -0.382600
     12 O           -2.4390     4.4140     8.4690 os         1 D5V      -0.419600
     13 S           -2.1890     2.1470    11.6690 ss         1 D5V      -0.290000
     14 C3          -3.3410     0.9570    11.0390 ca         1 D5V       0.010900
     15 C2          -2.9020    -0.1050    10.2530 ca         1 D5V      -0.090500
     16 C1          -3.8080    -1.0490     9.7960 ca         1 D5V      -0.134000
     17 C           -5.1520    -0.9530    10.1420 ca         1 D5V      -0.107000
     18 H1          -5.0290     1.8860    11.9880 ha         1 D5V       0.142500
     19 H2          -6.6300     0.1770    11.2110 ha         1 D5V       0.134500
     20 H3          -1.7710     2.2120     9.3200 h1         1 D5V       0.098700
     21 H4           0.2060     3.5020    11.2430 h1         1 D5V       0.073700
     22 H5           0.5580     3.3370     8.2490 h1         1 D5V       0.038700
     23 H6           0.2870     6.0570     8.9630 h1         1 D5V       0.102700
     24 H7          -0.9300     4.4280     7.0410 h1         1 D5V       0.059200
     25 H8          -1.5900     6.0160     7.4730 h1         1 D5V       0.059200
     26 H9          -3.0630     4.4630    10.4210 h2         1 D5V       0.118700
     27 H10          0.3300     1.2520    10.9900 ho         1 D5V       0.423000
     28 H11          2.4970     3.4860     9.6920 hn         1 D5V       0.348300
     29 H12          2.3400     4.8330     8.8210 hn         1 D5V       0.348300
     30 H14         -1.8530    -0.1910     9.9970 ha         1 D5V       0.142500
     31 H15         -3.4630    -1.8690     9.1800 ha         1 D5V       0.134500
     32 H16         -5.8560    -1.6960     9.7920 ha         1 D5V       0.134000
@<TRIPOS>BOND
     1     1     2 ar  
     2     1    14 ar  
     3     1    18 1   
     4     2    17 ar  
     5     2    19 1   
     6     3     4 1   
     7     3     8 1   
     8     3    13 1   
     9     3    20 1   
    10     4     5 1   
    11     4     9 1   
    12     4    21 1   
    13     5     6 1   
    14     5    10 1   
    15     5    22 1   
    16     6     7 1   
    17     6    11 1   
    18     6    23 1   
    19     7    12 1   
    20     7    24 1   
    21     7    25 1   
    22     8    11 1   
    23     8    12 1   
    24     8    26 1   
    25     9    27 1   
    26    10    28 1   
    27    10    29 1   
    28    13    14 1   
    29    14    15 ar  
    30    15    16 ar  
    31    15    30 1   
    32    16    17 ar  
    33    16    31 1   
    34    17    32 1   
@<TRIPOS>SUBSTRUCTURE
     1 D5V         1 TEMP              0 ****  ****    0 ROOT
