@<TRIPOS>MOLECULE
D5Y
   26    26     1     0     0
SMALL
bcc


@<TRIPOS>ATOM
      1 O3          -3.5710     3.2100     5.3700 o          1 D5Y      -0.601500
      2 C4          -3.0880     1.6040     8.4510 cc         1 D5Y       0.076600
      3 C5          -2.9170     2.6370     9.2950 cd         1 D5Y      -0.251500
      4 C6          -2.9970     3.9980     8.8010 c          1 D5Y       0.744700
      5 N1          -3.2310     4.0550     7.4410 ns         1 D5Y      -0.602500
      6 C7          -3.4000     3.0220     6.5530 c          1 D5Y       0.826500
      7 N2          -5.8700     0.9910     5.5220 n8         1 D5Y      -0.864800
      8 BR          -2.5580     2.3820    11.1070 br         1 D5Y      -0.015700
      9 O2          -2.8670     5.0030     9.4660 o          1 D5Y      -0.572500
     10 N           -3.3550     1.7630     7.1240 n          1 D5Y      -0.381000
     11 C3          -3.5630     0.5760     6.2940 c3         1 D5Y       0.112000
     12 C2          -5.0170     0.0910     6.2530 c3         1 D5Y       0.098500
     13 C1          -5.5220    -0.2260     7.6600 c          1 D5Y       0.585100
     14 O1          -6.4040     0.3740     8.2160 o          1 D5Y      -0.523000
     15 O           -4.8620    -1.2390     8.2040 os         1 D5Y      -0.428900
     16 C           -5.2320    -1.6370     9.5280 c3         1 D5Y       0.123700
     17 H1          -3.0010     0.5790     8.7850 h4         1 D5Y       0.169000
     18 H2          -3.2780     4.9820     7.0340 hn         1 D5Y       0.346500
     19 H4          -6.0490     1.8390     6.0460 hn         1 D5Y       0.363800
     20 H6          -2.9110    -0.2090     6.6730 h1         1 D5Y       0.087700
     21 H7          -3.2470     0.8020     5.2790 h1         1 D5Y       0.087700
     22 H8          -4.9790    -0.8560     5.7050 h1         1 D5Y       0.094700
     23 H9          -4.5740    -2.4600     9.7870 h1         1 D5Y       0.053700
     24 H10         -5.0930    -0.8240    10.2420 h1         1 D5Y       0.053700
     25 H11         -6.2670    -1.9720     9.5630 h1         1 D5Y       0.053700
     26 H3          -6.7730     0.5610     5.3760 hn         1 D5Y       0.363800
@<TRIPOS>BOND
     1     1     6 2   
     2     2     3 2   
     3     2    10 1   
     4     2    17 1   
     5     3     4 1   
     6     3     8 1   
     7     4     5 1   
     8     4     9 2   
     9     5     6 1   
    10     5    18 1   
    11     6    10 1   
    12     7    12 1   
    13     7    19 1   
    14     7    26 1   
    15    10    11 1   
    16    11    12 1   
    17    11    20 1   
    18    11    21 1   
    19    12    13 1   
    20    12    22 1   
    21    13    14 2   
    22    13    15 1   
    23    15    16 1   
    24    16    23 1   
    25    16    24 1   
    26    16    25 1   
@<TRIPOS>SUBSTRUCTURE
     1 D5Y         1 TEMP              0 ****  ****    0 ROOT
