@<TRIPOS>MOLECULE
D5Y
   26    26     1     0     0
SMALL
No Charge or Current Charge


@<TRIPOS>ATOM
      1 O3          -3.3240     3.2190     5.3050 o          1 D5Y      -0.526000
      2 C4          -3.2000     1.7130     8.5460 cc         1 D5Y       0.026600
      3 C5          -2.9930     2.8380     9.3100 cd         1 D5Y      -0.251500
      4 C6          -2.9110     4.1720     8.6750 c          1 D5Y       0.602200
      5 N1          -3.0430     4.1440     7.3230 ns         1 D5Y      -0.468500
      6 C7          -3.2470     3.0710     6.5130 c          1 D5Y       0.617000
      7 N2          -5.9600     1.0970     5.5740 n8         1 D5Y      -0.975200
      8 Br          -2.8000     2.7310    11.1880 br         1 D5Y      -0.015700
      9 O2          -2.7340     5.2170     9.2800 o          1 D5Y      -0.497000
     10 N           -3.3540     1.8190     7.1600 n          1 D5Y      -0.314000
     11 C3          -3.5860     0.5970     6.3360 c3         1 D5Y       0.112000
     12 C2          -5.0650     0.1080     6.2840 c3         1 D5Y       0.098500
     13 C1          -5.5600    -0.3460     7.6970 c          1 D5Y       0.536100
     14 O1          -6.4930     0.1750     8.2950 o          1 D5Y      -0.474000
     15 O           -4.8400    -1.4130     8.1730 os         1 D5Y      -0.452100
     16 C           -5.1930    -1.9480     9.4640 c3         1 D5Y       0.146900
     17 H1          -3.2550     0.6970     8.9250 h4         1 D5Y       0.219000
     18 H2          -2.9770     5.0350     6.8580 hn         1 D5Y       0.346500
     19 H4          -6.0570     1.9370     6.1570 hn         1 D5Y       0.419000
     20 H6          -2.9610    -0.2130     6.7340 h1         1 D5Y       0.087700
     21 H7          -3.2380     0.7670     5.3090 h1         1 D5Y       0.087700
     22 H8          -5.0610    -0.8130     5.6830 h1         1 D5Y       0.094700
     23 H9          -4.5390    -2.7910     9.7200 h1         1 D5Y       0.053700
     24 H10         -5.0870    -1.1860    10.2470 h1         1 D5Y       0.053700
     25 H11         -6.2300    -2.3090     9.4690 h1         1 D5Y       0.053700
     26 H3          -6.9200     0.7280     5.5490 hn         1 D5Y       0.419000
@<TRIPOS>BOND
     1     1     6 2   
     2     2     3 2   
     3     2    10 1   
     4     2    17 1   
     5     3     4 1   
     6     3     8 1   
     7     4     5 1   
     8     4     9 2   
     9     5     6 1   
    10     5    18 1   
    11     6    10 1   
    12     7    12 1   
    13     7    19 1   
    14     7    26 1   
    15    10    11 1   
    16    11    12 1   
    17    11    20 1   
    18    11    21 1   
    19    12    13 1   
    20    12    22 1   
    21    13    14 2   
    22    13    15 1   
    23    15    16 1   
    24    16    23 1   
    25    16    24 1   
    26    16    25 1   
@<TRIPOS>SUBSTRUCTURE
     1 D5Y         1 TEMP              0 ****  ****    0 ROOT
