@<TRIPOS>MOLECULE
D5Z
   70    75     1     0     0
SMALL
No Charge or Current Charge


@<TRIPOS>ATOM
      1 C1           6.6640    -4.3030    -1.6110 c3         1 D5Z       0.144900
      2 C2           4.7620    -2.9550    -0.7750 ca         1 D5Z       0.129100
      3 C3           5.4440    -1.7400    -0.9990 ca         1 D5Z      -0.183000
      4 C4           4.8330    -0.5140    -0.6920 ca         1 D5Z      -0.089000
      5 C5           3.5300    -0.4650    -0.1440 ca         1 D5Z      -0.124900
      6 N6          -6.9590    -1.0200    -0.6400 nb         1 D5Z      -0.281000
      7 C8          -0.9890     1.3260    -1.0550 c6         1 D5Z      -0.097900
      8 C11         -6.5260     0.1300    -1.1710 ca         1 D5Z       0.407900
      9 C12         -6.0870    -1.7050     0.1260 ca         1 D5Z       0.091000
     10 C13         -6.4600    -2.9280     0.7150 ca         1 D5Z      -0.119000
     11 C15         -4.2520    -3.1590     1.7060 ca         1 D5Z      -0.153000
     12 C16         -3.8630    -1.9400     1.1270 ca         1 D5Z      -0.053000
     13 C17         -4.7800    -1.2040     0.3430 ca         1 D5Z      -0.203000
     14 C18         -2.8680     1.2730     1.2130 c6         1 D5Z       0.216300
     15 C19         -1.3410     1.3030     1.4510 c6         1 D5Z      -0.097900
     16 C20          1.4870     3.2090     1.0940 c          1 D5Z       0.560000
     17 C21          3.0250     3.1310     1.2670 c6         1 D5Z      -0.141700
     18 O1           5.3370    -4.1810    -1.0670 os         1 D5Z      -0.316100
     19 C6           2.8450     0.8470     0.1620 ce         1 D5Z       0.409900
     20 N1           1.5570     0.8720     0.3520 n2         1 D5Z      -0.459300
     21 N2           0.8590     2.0680     0.5150 n          1 D5Z      -0.179800
     22 C7          -0.6130     2.0160     0.2840 c6         1 D5Z       0.133700
     23 C9          -2.5210     1.3080    -1.2520 c6         1 D5Z       0.216300
     24 N3          -3.1850     0.6430    -0.0970 nh         1 D5Z      -0.785300
     25 C10         -4.4450     0.0310    -0.2650 ca         1 D5Z       0.432900
     26 N4          -5.3270     0.6960    -1.0340 nb         1 D5Z      -0.323000
     27 C14         -5.5500    -3.6520     1.5030 ca         1 D5Z      -0.073000
     28 O2           0.8360     4.1500     1.5350 o          1 D5Z      -0.532000
     29 C22          3.7620     4.5030     1.2620 c6         1 D5Z      -0.028200
     30 C23          4.0240     5.0430    -0.1330 c2         1 D5Z      -0.211200
     31 C24          3.9730     4.2850    -1.2370 c2         1 D5Z      -0.223200
     32 C25          3.6340     2.8030    -1.2250 c6         1 D5Z      -0.038200
     33 C26          3.6420     2.1650     0.2010 c6         1 D5Z      -0.129000
     34 C27          2.8470    -1.6890     0.0630 ca         1 D5Z      -0.142000
     35 C28          3.4530    -2.9290    -0.2430 ca         1 D5Z       0.107100
     36 O3           2.7970    -4.1330    -0.0390 os         1 D5Z      -0.322100
     37 C29          1.4590    -4.2100     0.4850 c3         1 D5Z       0.143900
     38 H1           6.7360    -3.7940    -2.5810 h1         1 D5Z       0.041367
     39 H2           7.4060    -3.8700    -0.9280 h1         1 D5Z       0.041367
     40 H3           6.9160    -5.3590    -1.7620 h1         1 D5Z       0.041367
     41 H4           6.4470    -1.7260    -1.4140 ha         1 D5Z       0.121000
     42 H5           5.3910     0.3960    -0.8950 ha         1 D5Z       0.114000
     43 H6          -0.5150     1.8510    -1.8940 hc         1 D5Z       0.061700
     44 H7          -0.6180     0.2930    -1.0770 hc         1 D5Z       0.061700
     45 H8          -7.4620    -3.3190     0.5560 ha         1 D5Z       0.131000
     46 H9          -3.5440    -3.7230     2.3090 ha         1 D5Z       0.114000
     47 H10         -2.8490    -1.5810     1.2850 ha         1 D5Z       0.116000
     48 H11         -3.3450     0.7200     2.0350 h1         1 D5Z       0.053450
     49 H12         -3.2620     2.3000     1.2410 h1         1 D5Z       0.053450
     50 H13         -1.1270     1.8160     2.3970 hc         1 D5Z       0.061700
     51 H14         -0.9680     0.2760     1.5570 hc         1 D5Z       0.061700
     52 H15          3.1650     2.6600     2.2500 hc         1 D5Z       0.077700
     53 H16         -0.9890     3.0480     0.2320 h1         1 D5Z       0.080700
     54 H17         -2.8910     2.3390    -1.3640 h1         1 D5Z       0.053450
     55 H18         -2.7490     0.7720    -2.1850 h1         1 D5Z       0.053450
     56 H19         -8.2420     0.3080    -2.2590 hn         1 D5Z       0.486500
     57 H20         -7.0640     1.5470    -2.5380 hn         1 D5Z       0.486500
     58 H21         -5.8500    -4.5970     1.9520 ha         1 D5Z       0.113000
     59 H22          3.1990     5.2410     1.8490 hc         1 D5Z       0.063200
     60 H23          4.7280     4.3940     1.7750 hc         1 D5Z       0.063200
     61 H24          4.2700     6.1050    -0.2000 ha         1 D5Z       0.178000
     62 H25          4.1740     4.7230    -2.2180 ha         1 D5Z       0.177000
     63 H26          2.6460     2.6790    -1.6890 hc         1 D5Z       0.058200
     64 H27          4.3360     2.2650    -1.8760 hc         1 D5Z       0.058200
     65 H28          4.6800     1.9680     0.4970 hc         1 D5Z       0.074700
     66 H29          1.8410    -1.6650     0.4710 ha         1 D5Z       0.140000
     67 H30          1.1400    -5.2570     0.5600 h1         1 D5Z       0.042700
     68 H31          1.4070    -3.7670     1.4880 h1         1 D5Z       0.042700
     69 H32          0.7520    -3.6860    -0.1700 h1         1 D5Z       0.042700
     70 N5          -7.4110     0.8000    -1.9420 nv         1 D5Z      -1.051900
@<TRIPOS>BOND
     1     1    18 1   
     2     1    38 1   
     3     1    39 1   
     4     1    40 1   
     5     2     3 ar  
     6     2    18 1   
     7     2    35 ar  
     8     3     4 ar  
     9     3    41 1   
    10     4     5 ar  
    11     4    42 1   
    12     5    19 1   
    13     5    34 ar  
    14     6     8 ar  
    15     6     9 ar  
    16     7    22 1   
    17     7    23 1   
    18     7    43 1   
    19     7    44 1   
    20     8    26 ar  
    21     8    70 1   
    22     9    10 ar  
    23     9    13 ar  
    24    10    27 ar  
    25    10    45 1   
    26    11    12 ar  
    27    11    27 ar  
    28    11    46 1   
    29    12    13 ar  
    30    12    47 1   
    31    13    25 ar  
    32    14    15 1   
    33    14    24 1   
    34    14    48 1   
    35    14    49 1   
    36    15    22 1   
    37    15    50 1   
    38    15    51 1   
    39    16    17 1   
    40    16    21 1   
    41    16    28 2   
    42    17    29 1   
    43    17    33 1   
    44    17    52 1   
    45    19    20 2   
    46    19    33 1   
    47    20    21 1   
    48    21    22 1   
    49    22    53 1   
    50    23    24 1   
    51    23    54 1   
    52    23    55 1   
    53    24    25 1   
    54    25    26 ar  
    55    27    58 1   
    56    29    30 1   
    57    29    59 1   
    58    29    60 1   
    59    30    31 2   
    60    30    61 1   
    61    31    32 1   
    62    31    62 1   
    63    32    33 1   
    64    32    63 1   
    65    32    64 1   
    66    33    65 1   
    67    34    35 ar  
    68    34    66 1   
    69    35    36 1   
    70    36    37 1   
    71    37    67 1   
    72    37    68 1   
    73    37    69 1   
    74    56    70 1   
    75    57    70 1   
@<TRIPOS>SUBSTRUCTURE
     1 D5Z         1 TEMP              0 ****  ****    0 ROOT
