@<TRIPOS>MOLECULE
D5Z
   70    75     1     0     0
SMALL
abcg2


@<TRIPOS>ATOM
      1 C1           6.0360    -4.4400    -1.3170 c3         1 D5Z       0.144900
      2 C2           4.2930    -2.9490    -0.7480 ca         1 D5Z       0.129100
      3 C3           5.1300    -1.8490    -0.7130 ca         1 D5Z      -0.183000
      4 C4           4.6290    -0.5810    -0.4180 ca         1 D5Z      -0.089000
      5 C5           3.2810    -0.3960    -0.1570 ca         1 D5Z      -0.124900
      6 N6          -6.4220    -1.4950    -0.7410 nb         1 D5Z      -0.281000
      7 C8          -1.0390     1.7630    -0.9710 c6         1 D5Z      -0.097900
      8 C11         -6.0160    -0.4810    -1.4710 ca         1 D5Z       0.407900
      9 C12         -5.5660    -1.9190     0.2170 ca         1 D5Z       0.091000
     10 C13         -5.8870    -3.0760     0.9620 ca         1 D5Z      -0.119000
     11 C15         -3.7230    -3.0140     2.0300 ca         1 D5Z      -0.153000
     12 C16         -3.4070    -1.8670     1.3460 ca         1 D5Z      -0.053000
     13 C17         -4.3370    -1.2720     0.4740 ca         1 D5Z      -0.203000
     14 C18         -2.6810     1.1520     1.3090 c6         1 D5Z       0.216300
     15 C19         -1.1750     1.2380     1.4830 c6         1 D5Z      -0.097900
     16 C20          1.5310     3.3340     0.9500 c          1 D5Z       0.560000
     17 C21          3.0040     3.1110     1.2020 c6         1 D5Z      -0.141700
     18 O1           4.6730    -4.2050    -1.0240 os         1 D5Z      -0.316100
     19 C6           2.7200     0.9330     0.1260 ce         1 D5Z       0.409900
     20 N1           1.4600     1.0080     0.3160 n2         1 D5Z      -0.459300
     21 N2           0.8700     2.2190     0.5190 n          1 D5Z      -0.179800
     22 C7          -0.5860     2.1700     0.4280 c6         1 D5Z       0.133700
     23 C9          -2.5570     1.6560    -1.0480 c6         1 D5Z       0.216300
     24 N3          -3.0190     0.7150    -0.0420 nh         1 D5Z      -0.785300
     25 C10         -4.1020    -0.0700    -0.2880 ca         1 D5Z       0.432900
     26 N4          -4.9040     0.2620    -1.2700 nb         1 D5Z      -0.323000
     27 C14         -4.9870    -3.6030     1.8520 ca         1 D5Z      -0.073000
     28 O2           0.9570     4.3880     1.1590 o          1 D5Z      -0.532000
     29 C22          3.8020     4.4030     1.2770 c6         1 D5Z      -0.028200
     30 C23          4.1200     4.9540    -0.0780 c2         1 D5Z      -0.211200
     31 C24          4.0090     4.2540    -1.2030 c2         1 D5Z      -0.223200
     32 C25          3.5630     2.8260    -1.2520 c6         1 D5Z      -0.038200
     33 C26          3.5650     2.1710     0.1380 c6         1 D5Z      -0.129000
     34 C27          2.4310    -1.5150    -0.1930 ca         1 D5Z      -0.142000
     35 C28          2.9150    -2.7720    -0.4790 ca         1 D5Z       0.107100
     36 O3           2.1700    -3.8910    -0.5330 os         1 D5Z      -0.322100
     37 C29          0.7820    -3.7790    -0.2920 c3         1 D5Z       0.143900
     38 H1           6.3650    -3.8800    -2.1960 h1         1 D5Z       0.041367
     39 H2           6.6840    -4.1860    -0.4740 h1         1 D5Z       0.041367
     40 H3           6.1280    -5.5030    -1.5230 h1         1 D5Z       0.041367
     41 H4           6.1880    -1.9520    -0.9120 ha         1 D5Z       0.121000
     42 H5           5.3250     0.2450    -0.4020 ha         1 D5Z       0.114000
     43 H6          -0.6950     2.4980    -1.7030 hc         1 D5Z       0.061700
     44 H7          -0.5980     0.7990    -1.2370 hc         1 D5Z       0.061700
     45 H8          -6.8450    -3.5500     0.7900 ha         1 D5Z       0.131000
     46 H9          -3.0000    -3.4690     2.6930 ha         1 D5Z       0.114000
     47 H10         -2.4190    -1.4420     1.4600 ha         1 D5Z       0.116000
     48 H11         -3.1200     0.4920     2.0520 h1         1 D5Z       0.053450
     49 H12         -3.1290     2.1410     1.4760 h1         1 D5Z       0.053450
     50 H13         -0.9460     1.6090     2.4850 hc         1 D5Z       0.061700
     51 H14         -0.7370     0.2420     1.3910 hc         1 D5Z       0.061700
     52 H15          3.0600     2.6020     2.1740 hc         1 D5Z       0.077700
     53 H16         -0.9400     3.1820     0.6250 h1         1 D5Z       0.080700
     54 H17         -3.0150     2.6420    -0.8970 h1         1 D5Z       0.053450
     55 H18         -2.8560     1.3090    -2.0340 h1         1 D5Z       0.053450
     56 H19         -7.7040    -0.4750    -2.5920 hn         1 D5Z       0.486500
     57 H20         -6.6210     0.8010    -2.9220 hn         1 D5Z       0.486500
     58 H21         -5.2410    -4.5000     2.4030 ha         1 D5Z       0.113000
     59 H22          3.2650     5.1460     1.8690 hc         1 D5Z       0.063200
     60 H23          4.7320     4.2110     1.8210 hc         1 D5Z       0.063200
     61 H24          4.4670     5.9810    -0.1220 ha         1 D5Z       0.178000
     62 H25          4.2450     4.7240    -2.1510 ha         1 D5Z       0.177000
     63 H26          2.5680     2.7700    -1.7100 hc         1 D5Z       0.058200
     64 H27          4.2160     2.2560    -1.9180 hc         1 D5Z       0.058200
     65 H28          4.5960     1.9450     0.4140 hc         1 D5Z       0.074700
     66 H29          1.3800    -1.3620     0.0080 ha         1 D5Z       0.140000
     67 H30          0.3700    -4.7800    -0.3910 h1         1 D5Z       0.042700
     68 H31          0.5700    -3.4090     0.7150 h1         1 D5Z       0.042700
     69 H32          0.2930    -3.1240    -1.0190 h1         1 D5Z       0.042700
     70 N5          -6.7670    -0.1160    -2.5360 nv         1 D5Z      -1.051900
@<TRIPOS>BOND
     1     1    18 1   
     2     1    38 1   
     3     1    39 1   
     4     1    40 1   
     5     2     3 ar  
     6     2    18 1   
     7     2    35 ar  
     8     3     4 ar  
     9     3    41 1   
    10     4     5 ar  
    11     4    42 1   
    12     5    19 1   
    13     5    34 ar  
    14     6     8 ar  
    15     6     9 ar  
    16     7    22 1   
    17     7    23 1   
    18     7    43 1   
    19     7    44 1   
    20     8    26 ar  
    21     8    70 1   
    22     9    10 ar  
    23     9    13 ar  
    24    10    27 ar  
    25    10    45 1   
    26    11    12 ar  
    27    11    27 ar  
    28    11    46 1   
    29    12    13 ar  
    30    12    47 1   
    31    13    25 ar  
    32    14    15 1   
    33    14    24 1   
    34    14    48 1   
    35    14    49 1   
    36    15    22 1   
    37    15    50 1   
    38    15    51 1   
    39    16    17 1   
    40    16    21 1   
    41    16    28 2   
    42    17    29 1   
    43    17    33 1   
    44    17    52 1   
    45    19    20 2   
    46    19    33 1   
    47    20    21 1   
    48    21    22 1   
    49    22    53 1   
    50    23    24 1   
    51    23    54 1   
    52    23    55 1   
    53    24    25 1   
    54    25    26 ar  
    55    27    58 1   
    56    29    30 1   
    57    29    59 1   
    58    29    60 1   
    59    30    31 2   
    60    30    61 1   
    61    31    32 1   
    62    31    62 1   
    63    32    33 1   
    64    32    63 1   
    65    32    64 1   
    66    33    65 1   
    67    34    35 ar  
    68    34    66 1   
    69    35    36 1   
    70    36    37 1   
    71    37    67 1   
    72    37    68 1   
    73    37    69 1   
    74    56    70 1   
    75    57    70 1   
@<TRIPOS>SUBSTRUCTURE
     1 D5Z         1 TEMP              0 ****  ****    0 ROOT
