@<TRIPOS>MOLECULE
D60
   49    52     1     0     0
SMALL
bcc


@<TRIPOS>ATOM
      1 C10        -22.6320     1.5500    45.7210 c3         1 D60       0.051600
      2 N1         -23.9940     1.6220    45.2490 na         1 D60       0.097400
      3 C8         -25.1030     1.2370    45.8990 cc         1 D60      -0.142300
      4 N2         -24.2590     2.1310    44.0500 nc         1 D60      -0.554800
      5 C9         -25.5720     2.0720    43.9290 cd         1 D60       0.309200
      6 C1         -26.1770     1.5100    45.0720 cd         1 D60      -0.175300
      7 C2         -27.5970     1.2770    45.3240 ca         1 D60      -0.030000
      8 C6         -28.0200     0.3990    46.3200 ca         1 D60      -0.144000
      9 C7         -28.5780     1.9330    44.5830 ca         1 D60      -0.141000
     10 C5         -29.9160     1.6990    44.8420 ca         1 D60      -0.115000
     11 C3         -30.3430     0.7980    45.8180 ca         1 D60      -0.114600
     12 C11        -31.8480     0.5700    45.9470 c          1 D60       0.922200
     13 O2         -32.2240    -0.5770    46.2610 o          1 D60      -0.823300
     14 O1         -32.5740     1.5480    45.6850 o          1 D60      -0.823300
     15 C4         -29.3640     0.1470    46.5880 ca         1 D60      -0.065300
     16 C12        -29.6950    -0.7950    47.7240 c3         1 D60      -0.021100
     17 C13        -28.8420    -0.5760    48.9780 c3         1 D60      -0.169400
     18 C14        -28.7790     0.8580    49.4430 c          1 D60       0.617700
     19 O3         -27.7720     1.3460    49.9000 o          1 D60      -0.537100
     20 C15        -30.0080     1.6990    49.2880 ca         1 D60      -0.254600
     21 C19        -31.2500     1.3320    49.7850 ca         1 D60       0.208400
     22 F1         -31.3430     0.1770    50.4570 f          1 D60      -0.137900
     23 C20        -32.3880     2.0930    49.6360 ca         1 D60      -0.184000
     24 C16        -29.9680     2.9240    48.6330 ca         1 D60       0.208400
     25 F2         -28.8020     3.3380    48.1310 f          1 D60      -0.137900
     26 C17        -31.0760     3.7180    48.4460 ca         1 D60      -0.184000
     27 C18        -32.3120     3.3030    48.9450 ca         1 D60       0.102000
     28 C21        -33.5080     4.1080    48.7450 cc         1 D60      -0.213300
     29 C22        -33.7030     5.1310    47.8330 cd         1 D60      -0.099300
     30 N3         -34.9570     5.5590    48.0080 na         1 D60      -0.007600
     31 N4         -35.6090     4.9070    48.9640 nd         1 D60      -0.543800
     32 C23        -34.7470     4.0220    49.4180 cc         1 D60       0.328200
     33 H1         -22.0230     0.9740    45.0270 h1         1 D60       0.046367
     34 H2         -22.2100     2.5490    45.8230 h1         1 D60       0.046367
     35 H3         -22.6200     1.0600    46.6900 h1         1 D60       0.046367
     36 H4         -25.0570     0.8160    46.8910 h4         1 D60       0.172000
     37 H5         -26.0480     2.4200    43.0240 h4         1 D60       0.033100
     38 H6         -27.2680    -0.1230    46.9010 ha         1 D60       0.104000
     39 H7         -28.3020     2.6420    43.8110 ha         1 D60       0.107000
     40 H8         -30.6610     2.2300    44.2640 ha         1 D60       0.142000
     41 H10        -30.7480    -0.7240    47.9710 hc         1 D60       0.074200
     42 H11        -29.5460    -1.8290    47.4000 hc         1 D60       0.074200
     43 H12        -29.2490    -1.1840    49.7920 hc         1 D60       0.054700
     44 H13        -27.8150    -0.9200    48.8440 hc         1 D60       0.054700
     45 H14        -33.3230     1.7310    50.0420 ha         1 D60       0.146500
     46 H15        -30.9700     4.6550    47.9160 ha         1 D60       0.146500
     47 H16        -33.0570     5.5590    47.0840 h4         1 D60       0.179000
     48 H17        -35.4200     6.2940    47.4950 hn         1 D60       0.312700
     49 H18        -35.0270     3.3560    50.2210 h4         1 D60       0.034100
@<TRIPOS>BOND
     1     1     2 1   
     2     1    33 1   
     3     1    34 1   
     4     1    35 1   
     5     2     3 1   
     6     2     4 1   
     7     3     6 2   
     8     3    36 1   
     9     4     5 2   
    10     5     6 1   
    11     5    37 1   
    12     6     7 1   
    13     7     8 ar  
    14     7     9 ar  
    15     8    15 ar  
    16     8    38 1   
    17     9    10 ar  
    18     9    39 1   
    19    10    11 ar  
    20    10    40 1   
    21    11    12 1   
    22    11    15 ar  
    23    12    13 1   
    24    12    14 1   
    25    15    16 1   
    26    16    17 1   
    27    16    41 1   
    28    16    42 1   
    29    17    18 1   
    30    17    43 1   
    31    17    44 1   
    32    18    19 2   
    33    18    20 1   
    34    20    21 ar  
    35    20    24 ar  
    36    21    22 1   
    37    21    23 ar  
    38    23    27 ar  
    39    23    45 1   
    40    24    25 1   
    41    24    26 ar  
    42    26    27 ar  
    43    26    46 1   
    44    27    28 1   
    45    28    29 2   
    46    28    32 1   
    47    29    30 1   
    48    29    47 1   
    49    30    31 1   
    50    30    48 1   
    51    31    32 2   
    52    32    49 1   
@<TRIPOS>SUBSTRUCTURE
     1 D60         1 TEMP              0 ****  ****    0 ROOT
