@<TRIPOS>MOLECULE
D60
   49    52     1     0     0
SMALL
No Charge or Current Charge


@<TRIPOS>ATOM
      1 C10        -22.0540     0.8890    46.4190 c3         1 D60       0.080900
      2 N1         -23.2830     1.0040    45.6200 na         1 D60       0.118800
      3 C8         -24.5710     0.6970    46.0440 cc         1 D60      -0.175000
      4 N2         -23.2210     1.4550    44.3190 nc         1 D60      -0.554800
      5 C9         -24.4860     1.4230    43.9420 cd         1 D60       0.243900
      6 C1         -25.3610     0.9670    44.9580 cd         1 D60      -0.110000
      7 C2         -26.8270     0.8110    44.8720 ca         1 D60      -0.030000
      8 C6         -27.5680     0.3370    45.9740 ca         1 D60      -0.126000
      9 C7         -27.5120     1.1340    43.6870 ca         1 D60      -0.123000
     10 C5         -28.9020     0.9710    43.6020 ca         1 D60      -0.097000
     11 C3         -29.6460     0.4910    44.6990 ca         1 D60      -0.114600
     12 C11        -31.1370     0.2970    44.5180 c          1 D60       0.711600
     13 O2         -31.6060    -0.8170    44.7060 o          1 D60      -0.718000
     14 O1         -31.7940     1.2410    44.1020 o          1 D60      -0.718000
     15 C4         -28.9740     0.1920    45.9170 ca         1 D60      -0.065300
     16 C12        -29.7440    -0.2990    47.1560 c3         1 D60      -0.021100
     17 C13        -29.2540     0.2500    48.5230 c3         1 D60      -0.169400
     18 C14        -29.3100     1.7840    48.5730 c          1 D60       0.617700
     19 O3         -28.3250     2.4660    48.3210 o          1 D60      -0.537100
     20 C15        -30.6080     2.4290    48.9120 ca         1 D60      -0.254600
     21 C19        -31.1820     2.2700    50.1800 ca         1 D60       0.243500
     22 F1         -30.5490     1.5440    51.1280 f          1 D60      -0.173000
     23 C20        -32.4060     2.8800    50.4920 ca         1 D60      -0.166000
     24 C16        -31.2710     3.2160    47.9610 ca         1 D60       0.243500
     25 F2         -30.7420     3.3830    46.7290 f          1 D60      -0.173000
     26 C17        -32.4960     3.8270    48.2660 ca         1 D60      -0.166000
     27 C18        -33.0830     3.6650    49.5380 ca         1 D60       0.102000
     28 C21        -34.3640     4.2930    49.8870 cc         1 D60      -0.148000
     29 C22        -35.0810     5.0700    49.0220 cd         1 D60      -0.132000
     30 N3         -36.2150     5.4550    49.7530 na         1 D60      -0.007200
     31 N4         -36.2190     4.9370    51.0500 nd         1 D60      -0.543800
     32 C23        -35.0950     4.2490    51.0860 cc         1 D60       0.262900
     33 H1         -21.3650     0.1870    45.9330 h1         1 D60       0.046367
     34 H2         -21.5750     1.8720    46.5020 h1         1 D60       0.046367
     35 H3         -22.2970     0.5190    47.4220 h1         1 D60       0.046367
     36 H4         -24.7950     0.3310    47.0380 h4         1 D60       0.154000
     37 H5         -24.7340     1.7340    42.9350 h4         1 D60       0.033100
     38 H6         -27.0430     0.0800    46.8860 ha         1 D60       0.086000
     39 H7         -26.9740     1.5020    42.8180 ha         1 D60       0.089000
     40 H8         -29.4090     1.2090    42.6700 ha         1 D60       0.124000
     41 H10        -30.8060    -0.0400    47.0780 hc         1 D60       0.074200
     42 H11        -29.7070    -1.3950    47.1870 hc         1 D60       0.074200
     43 H12        -29.9560    -0.1550    49.2610 hc         1 D60       0.054700
     44 H13        -28.2410    -0.1040    48.7410 hc         1 D60       0.054700
     45 H14        -32.8200     2.7370    51.4850 ha         1 D60       0.128500
     46 H15        -32.9790     4.4230    47.4990 ha         1 D60       0.128500
     47 H16        -34.9080     5.3780    47.9960 h4         1 D60       0.161000
     48 H17        -36.9740     6.0460    49.4130 hn         1 D60       0.363000
     49 H18        -34.8360     3.7290    51.9980 h4         1 D60       0.034100
@<TRIPOS>BOND
     1     1     2 1   
     2     1    33 1   
     3     1    34 1   
     4     1    35 1   
     5     2     3 1   
     6     2     4 1   
     7     3     6 2   
     8     3    36 1   
     9     4     5 2   
    10     5     6 1   
    11     5    37 1   
    12     6     7 1   
    13     7     8 ar  
    14     7     9 ar  
    15     8    15 ar  
    16     8    38 1   
    17     9    10 ar  
    18     9    39 1   
    19    10    11 ar  
    20    10    40 1   
    21    11    12 1   
    22    11    15 ar  
    23    12    13 1   
    24    12    14 1   
    25    15    16 1   
    26    16    17 1   
    27    16    41 1   
    28    16    42 1   
    29    17    18 1   
    30    17    43 1   
    31    17    44 1   
    32    18    19 2   
    33    18    20 1   
    34    20    21 ar  
    35    20    24 ar  
    36    21    22 1   
    37    21    23 ar  
    38    23    27 ar  
    39    23    45 1   
    40    24    25 1   
    41    24    26 ar  
    42    26    27 ar  
    43    26    46 1   
    44    27    28 1   
    45    28    29 2   
    46    28    32 1   
    47    29    30 1   
    48    29    47 1   
    49    30    31 1   
    50    30    48 1   
    51    31    32 2   
    52    32    49 1   
@<TRIPOS>SUBSTRUCTURE
     1 D60         1 TEMP              0 ****  ****    0 ROOT
