@<TRIPOS>MOLECULE
D61
   83    86     1     0     0
SMALL
bcc


@<TRIPOS>ATOM
      1 C1          23.0100     0.7260    51.8830 ca         1 D61      -0.140000
      2 C2          21.7450     1.2150    52.2740 ca         1 D61      -0.144000
      3 C3          20.7680     0.3510    52.6890 ca         1 D61      -0.109000
      4 C4          21.0060    -1.0430    52.7350 ca         1 D61      -0.032000
      5 C5          22.2790    -1.5330    52.3440 ca         1 D61      -0.042000
      6 C6          23.2700    -0.6170    51.9180 ca         1 D61      -0.117000
      7 C7          22.5110    -2.9270    52.3930 ca         1 D61      -0.132000
      8 C8          21.5310    -3.7840    52.8080 ca         1 D61      -0.111000
      9 C9          20.2540    -3.3090    53.1980 ca         1 D61      -0.055300
     10 C10         20.0140    -1.9590    53.1560 ca         1 D61      -0.120000
     11 C11         19.2200    -4.2800    53.6870 c3         1 D61      -0.045100
     12 C12         19.4250    -4.6610    55.1550 c3         1 D61      -0.069400
     13 C13         18.4230    -5.7120    55.6120 c3         1 D61      -0.079400
     14 C14         18.6180    -6.1520    57.0560 c3         1 D61      -0.098400
     15 C15         17.6620    -7.2600    57.4960 c3         1 D61       0.099000
     16 N16         17.8230    -8.4670    56.7140 ns         1 D61      -0.584900
     17 C17         17.0510    -8.7910    55.6590 c          1 D61       0.642100
     18 O18         16.0240    -8.2010    55.3670 o          1 D61      -0.589100
     19 C19         17.5840    -9.9790    54.8480 c3         1 D61       0.096100
     20 O20         17.0840    -9.9300    53.5420 os         1 D61      -0.330600
     21 C21         17.8820    -9.1530    52.6730 c3         1 D61       0.137400
     22 C22         17.1270    -8.8650    51.3920 c3         1 D61      -0.063400
     23 C23         15.9080    -7.9580    51.5500 c3         1 D61      -0.072400
     24 C24         16.2520    -6.5520    52.0280 c3         1 D61      -0.068400
     25 C25         15.0370    -5.6230    52.0540 c3         1 D61      -0.041100
     26 C26         15.3790    -4.2740    52.6180 ca         1 D61      -0.047300
     27 C27         15.3090    -4.0550    54.0150 ca         1 D61      -0.103000
     28 C28         15.6620    -2.8550    54.5660 ca         1 D61      -0.131000
     29 C29         16.1130    -1.7910    53.7500 ca         1 D61      -0.047000
     30 C30         16.1940    -1.9970    52.3480 ca         1 D61      -0.036000
     31 C31         15.8170    -3.2520    51.8140 ca         1 D61      -0.137000
     32 C32         16.6490    -0.9390    51.5270 ca         1 D61      -0.111000
     33 C33         17.0000     0.2670    52.0710 ca         1 D61      -0.144000
     34 C34         16.9160     0.4720    53.4650 ca         1 D61      -0.149000
     35 C35         16.4860    -0.5360    54.2850 ca         1 D61      -0.114000
     36 C36         17.2170   -11.3110    55.4990 c3         1 D61       0.020100
     37 O37         15.8360   -11.3380    55.7140 os         1 D61      -0.360600
     38 C38         15.4250   -12.2670    56.6830 c3         1 D61       0.010400
     39 C39         13.9020   -12.2460    56.9030 c          1 D61       0.936600
     40 O40         13.5050   -13.0680    57.7550 o          1 D61      -0.854300
     41 O41         13.2170   -11.4480    56.2420 o          1 D61      -0.854300
     42 C42         17.7700   -12.4680    54.6170 c          1 D61       0.918600
     43 O43         16.9590   -13.2770    54.1420 o          1 D61      -0.839800
     44 O44         19.0110   -12.4590    54.4810 o          1 D61      -0.839800
     45 H1          23.7740     1.4190    51.5560 ha         1 D61       0.118000
     46 H2          21.5510     2.2790    52.2440 ha         1 D61       0.119000
     47 H3          19.7980     0.7260    52.9910 ha         1 D61       0.133000
     48 H6          24.2400    -0.9960    51.6200 ha         1 D61       0.123000
     49 H7          23.4800    -3.3090    52.0910 ha         1 D61       0.125000
     50 H8          21.7240    -4.8500    52.8350 ha         1 D61       0.138000
     51 H10         19.0410    -1.5740    53.4460 ha         1 D61       0.144000
     52 H11         18.2200    -3.8590    53.5620 hc         1 D61       0.060200
     53 H11A        19.2520    -5.1890    53.0770 hc         1 D61       0.060200
     54 H12         20.4430    -5.0410    55.2950 hc         1 D61       0.030700
     55 H12A        19.3450    -3.7630    55.7750 hc         1 D61       0.030700
     56 H13         17.4070    -5.3260    55.4780 hc         1 D61       0.054700
     57 H13A        18.5100    -6.5770    54.9480 hc         1 D61       0.054700
     58 H14         19.6490    -6.4920    57.2020 hc         1 D61       0.024700
     59 H14A        18.4810    -5.2980    57.7270 hc         1 D61       0.024700
     60 H15         17.8330    -7.5000    58.5470 h1         1 D61       0.051200
     61 H15A        16.6270    -6.9310    57.4080 h1         1 D61       0.051200
     62 HN16        18.7000    -8.9540    56.8180 hn         1 D61       0.303500
     63 H19         18.6810    -9.9330    54.8440 h1         1 D61       0.038700
     64 H21         18.1830    -8.2110    53.1520 h1         1 D61       0.005700
     65 H21A        18.8120    -9.6910    52.4420 h1         1 D61       0.005700
     66 H22         17.8310    -8.4020    50.6940 hc         1 D61       0.034700
     67 H22A        16.8270    -9.8120    50.9340 hc         1 D61       0.034700
     68 H23         15.3990    -7.8920    50.5830 hc         1 D61       0.051700
     69 H23A        15.1910    -8.4120    52.2390 hc         1 D61       0.051700
     70 H24         16.6900    -6.5910    53.0290 hc         1 D61       0.037700
     71 H24A        17.0190    -6.1170    51.3770 hc         1 D61       0.037700
     72 H25         14.6390    -5.5180    51.0420 hc         1 D61       0.053200
     73 H25A        14.2470    -6.0830    52.6570 hc         1 D61       0.053200
     74 H27         14.9700    -4.8610    54.6560 ha         1 D61       0.162000
     75 H28         15.6000    -2.7060    55.6370 ha         1 D61       0.131000
     76 H31         15.8780    -3.3980    50.7410 ha         1 D61       0.128000
     77 H32         16.7150    -1.0960    50.4570 ha         1 D61       0.126000
     78 H33         17.3460     1.0700    51.4330 ha         1 D61       0.119000
     79 H34         17.1980     1.4300    53.8820 ha         1 D61       0.118000
     80 H35         16.4240    -0.3830    55.3560 ha         1 D61       0.126000
     81 H36         17.7590   -11.3460    56.4600 h1         1 D61      -0.001300
     82 H38         15.7210   -13.2870    56.4080 h1         1 D61      -0.002300
     83 H38A        15.9160   -12.0580    57.6480 h1         1 D61      -0.002300
@<TRIPOS>BOND
     1     1     2 ar  
     2     1     6 ar  
     3     1    45 1   
     4     2     3 ar  
     5     2    46 1   
     6     3     4 ar  
     7     3    47 1   
     8     4     5 ar  
     9     4    10 ar  
    10     5     6 ar  
    11     5     7 ar  
    12     6    48 1   
    13     7     8 ar  
    14     7    49 1   
    15     8     9 ar  
    16     8    50 1   
    17     9    10 ar  
    18     9    11 1   
    19    10    51 1   
    20    11    12 1   
    21    11    52 1   
    22    11    53 1   
    23    12    13 1   
    24    12    54 1   
    25    12    55 1   
    26    13    14 1   
    27    13    56 1   
    28    13    57 1   
    29    14    15 1   
    30    14    58 1   
    31    14    59 1   
    32    15    16 1   
    33    15    60 1   
    34    15    61 1   
    35    16    17 1   
    36    16    62 1   
    37    17    18 2   
    38    17    19 1   
    39    19    20 1   
    40    19    36 1   
    41    19    63 1   
    42    20    21 1   
    43    21    22 1   
    44    21    64 1   
    45    21    65 1   
    46    22    23 1   
    47    22    66 1   
    48    22    67 1   
    49    23    24 1   
    50    23    68 1   
    51    23    69 1   
    52    24    25 1   
    53    24    70 1   
    54    24    71 1   
    55    25    26 1   
    56    25    72 1   
    57    25    73 1   
    58    26    27 ar  
    59    26    31 ar  
    60    27    28 ar  
    61    27    74 1   
    62    28    29 ar  
    63    28    75 1   
    64    29    30 ar  
    65    29    35 ar  
    66    30    31 ar  
    67    30    32 ar  
    68    31    76 1   
    69    32    33 ar  
    70    32    77 1   
    71    33    34 ar  
    72    33    78 1   
    73    34    35 ar  
    74    34    79 1   
    75    35    80 1   
    76    36    37 1   
    77    36    42 1   
    78    36    81 1   
    79    37    38 1   
    80    38    39 1   
    81    38    82 1   
    82    38    83 1   
    83    39    40 1   
    84    39    41 1   
    85    42    43 1   
    86    42    44 1   
@<TRIPOS>SUBSTRUCTURE
     1 D61         1 TEMP              0 ****  ****    0 ROOT
