@<TRIPOS>MOLECULE
D61
   83    86     1     0     0
SMALL
No Charge or Current Charge


@<TRIPOS>ATOM
      1 C1          22.3500     1.2660    51.8520 ca         1 D61      -0.122000
      2 C2          21.3500     1.5340    52.8020 ca         1 D61      -0.126000
      3 C3          20.5720     0.4840    53.3200 ca         1 D61      -0.091000
      4 C4          20.7920    -0.8380    52.8870 ca         1 D61      -0.032000
      5 C5          21.7990    -1.1070    51.9340 ca         1 D61      -0.042000
      6 C6          22.5760    -0.0520    51.4190 ca         1 D61      -0.099000
      7 C7          22.0190    -2.4280    51.5040 ca         1 D61      -0.114000
      8 C8          21.2390    -3.4770    52.0210 ca         1 D61      -0.093000
      9 C9          20.2320    -3.2150    52.9700 ca         1 D61      -0.055300
     10 C10         20.0130    -1.8920    53.3990 ca         1 D61      -0.102000
     11 C11         19.3750    -4.3460    53.5200 c3         1 D61      -0.045100
     12 C12         19.7180    -4.7070    54.9810 c3         1 D61      -0.069400
     13 C13         18.8030    -5.8140    55.5440 c3         1 D61      -0.079400
     14 C14         19.1480    -6.2260    56.9950 c3         1 D61      -0.098400
     15 C15         18.1880    -7.2730    57.6060 c3         1 D61       0.099000
     16 N16         18.1730    -8.5360    56.8600 ns         1 D61      -0.517900
     17 C17         17.2730    -8.8520    55.8560 c          1 D61       0.575100
     18 O18         16.3800    -8.0750    55.5350 o          1 D61      -0.589100
     19 C19         17.5720   -10.1880    55.1130 c3         1 D61       0.119300
     20 O20         17.2640   -10.1100    53.6960 os         1 D61      -0.377000
     21 C21         18.2140    -9.3610    52.9180 c3         1 D61       0.160600
     22 C22         17.6060    -9.0870    51.5240 c3         1 D61      -0.063400
     23 C23         16.3540    -8.1730    51.5290 c3         1 D61      -0.072400
     24 C24         16.6190    -6.7360    52.0390 c3         1 D61      -0.068400
     25 C25         15.3720    -5.8300    51.9850 c3         1 D61      -0.041100
     26 C26         15.6390    -4.4650    52.6030 ca         1 D61      -0.047300
     27 C27         15.4210    -4.2580    53.9790 ca         1 D61      -0.085000
     28 C28         15.6870    -3.0060    54.5600 ca         1 D61      -0.113000
     29 C29         16.1760    -1.9510    53.7690 ca         1 D61      -0.047000
     30 C30         16.4030    -2.1540    52.3900 ca         1 D61      -0.036000
     31 C31         16.1310    -3.4090    51.8120 ca         1 D61      -0.119000
     32 C32         16.9070    -1.1030    51.6010 ca         1 D61      -0.093000
     33 C33         17.1760     0.1480    52.1820 ca         1 D61      -0.126000
     34 C34         16.9420     0.3530    53.5520 ca         1 D61      -0.131000
     35 C35         16.4460    -0.6950    54.3460 ca         1 D61      -0.096000
     36 C36         16.7900   -11.3730    55.7420 c3         1 D61       0.043300
     37 O37         15.3580   -11.1190    55.6300 os         1 D61      -0.407000
     38 C38         14.5220   -11.8980    56.5300 c3         1 D61       0.033600
     39 C39         12.9820   -11.6410    56.3680 c          1 D61       0.726000
     40 O40         12.2240   -12.2550    57.1090 o          1 D61      -0.749000
     41 O41         12.5760   -10.8480    55.5250 o          1 D61      -0.749000
     42 C42         17.2710   -12.7290    55.1140 c          1 D61       0.708000
     43 O43         16.5030   -13.4040    54.4370 o          1 D61      -0.734500
     44 O44         18.4030   -13.1090    55.3890 o          1 D61      -0.734500
     45 H1          22.9520     2.0800    51.4520 ha         1 D61       0.100000
     46 H2          21.1770     2.5540    53.1380 ha         1 D61       0.101000
     47 H3          19.8020     0.6980    54.0570 ha         1 D61       0.115000
     48 H6          23.3520    -0.2510    50.6840 ha         1 D61       0.105000
     49 H7          22.7920    -2.6440    50.7710 ha         1 D61       0.107000
     50 H8          21.4170    -4.4950    51.6800 ha         1 D61       0.120000
     51 H10         19.2330    -1.6850    54.1280 ha         1 D61       0.126000
     52 H11         18.3210    -4.0580    53.4690 hc         1 D61       0.060200
     53 H11A        19.4750    -5.2420    52.8940 hc         1 D61       0.060200
     54 H12         20.7640    -5.0340    55.0340 hc         1 D61       0.030700
     55 H12A        19.6280    -3.8120    55.6080 hc         1 D61       0.030700
     56 H13         17.7610    -5.4730    55.5050 hc         1 D61       0.054700
     57 H13A        18.8790    -6.6920    54.8930 hc         1 D61       0.054700
     58 H14         20.1720    -6.6190    57.0240 hc         1 D61       0.024700
     59 H14A        19.1350    -5.3330    57.6310 hc         1 D61       0.024700
     60 H15         18.5010    -7.4860    58.6370 h1         1 D61       0.051200
     61 H15A        17.1720    -6.8590    57.6490 h1         1 D61       0.051200
     62 HN16        18.9000    -9.2150    57.0560 hn         1 D61       0.303500
     63 H19         18.6420   -10.3960    55.2430 h1         1 D61       0.038700
     64 H21         18.4680    -8.4110    53.4030 h1         1 D61       0.005700
     65 H21A        19.1420    -9.9350    52.8030 h1         1 D61       0.005700
     66 H22         18.3760    -8.6300    50.8910 hc         1 D61       0.034700
     67 H22A        17.3490   -10.0450    51.0560 hc         1 D61       0.034700
     68 H23         15.9620    -8.1180    50.5060 hc         1 D61       0.051700
     69 H23A        15.5690    -8.6370    52.1390 hc         1 D61       0.051700
     70 H24         16.9720    -6.7750    53.0760 hc         1 D61       0.037700
     71 H24A        17.4210    -6.2790    51.4460 hc         1 D61       0.037700
     72 H25         15.0480    -5.7200    50.9430 hc         1 D61       0.053200
     73 H25A        14.5450    -6.3230    52.5120 hc         1 D61       0.053200
     74 H27         15.0530    -5.0720    54.6000 ha         1 D61       0.144000
     75 H28         15.5150    -2.8600    55.6240 ha         1 D61       0.113000
     76 H31         16.3110    -3.5680    50.7510 ha         1 D61       0.110000
     77 H32         17.0910    -1.2530    50.5400 ha         1 D61       0.108000
     78 H33         17.5670     0.9580    51.5710 ha         1 D61       0.101000
     79 H34         17.1500     1.3220    54.0000 ha         1 D61       0.100000
     80 H35         16.2730    -0.5310    55.4070 ha         1 D61       0.108000
     81 H36         17.0640   -11.4030    56.8060 h1         1 D61      -0.001300
     82 H38         14.6950   -12.9710    56.3770 h1         1 D61      -0.002300
     83 H38A        14.7880   -11.6690    57.5710 h1         1 D61      -0.002300
@<TRIPOS>BOND
     1     1     2 ar  
     2     1     6 ar  
     3     1    45 1   
     4     2     3 ar  
     5     2    46 1   
     6     3     4 ar  
     7     3    47 1   
     8     4     5 ar  
     9     4    10 ar  
    10     5     6 ar  
    11     5     7 ar  
    12     6    48 1   
    13     7     8 ar  
    14     7    49 1   
    15     8     9 ar  
    16     8    50 1   
    17     9    10 ar  
    18     9    11 1   
    19    10    51 1   
    20    11    12 1   
    21    11    52 1   
    22    11    53 1   
    23    12    13 1   
    24    12    54 1   
    25    12    55 1   
    26    13    14 1   
    27    13    56 1   
    28    13    57 1   
    29    14    15 1   
    30    14    58 1   
    31    14    59 1   
    32    15    16 1   
    33    15    60 1   
    34    15    61 1   
    35    16    17 1   
    36    16    62 1   
    37    17    18 2   
    38    17    19 1   
    39    19    20 1   
    40    19    36 1   
    41    19    63 1   
    42    20    21 1   
    43    21    22 1   
    44    21    64 1   
    45    21    65 1   
    46    22    23 1   
    47    22    66 1   
    48    22    67 1   
    49    23    24 1   
    50    23    68 1   
    51    23    69 1   
    52    24    25 1   
    53    24    70 1   
    54    24    71 1   
    55    25    26 1   
    56    25    72 1   
    57    25    73 1   
    58    26    27 ar  
    59    26    31 ar  
    60    27    28 ar  
    61    27    74 1   
    62    28    29 ar  
    63    28    75 1   
    64    29    30 ar  
    65    29    35 ar  
    66    30    31 ar  
    67    30    32 ar  
    68    31    76 1   
    69    32    33 ar  
    70    32    77 1   
    71    33    34 ar  
    72    33    78 1   
    73    34    35 ar  
    74    34    79 1   
    75    35    80 1   
    76    36    37 1   
    77    36    42 1   
    78    36    81 1   
    79    37    38 1   
    80    38    39 1   
    81    38    82 1   
    82    38    83 1   
    83    39    40 1   
    84    39    41 1   
    85    42    43 1   
    86    42    44 1   
@<TRIPOS>SUBSTRUCTURE
     1 D61         1 TEMP              0 ****  ****    0 ROOT
