@<TRIPOS>MOLECULE
D62
   67    72     1     0     0
SMALL
abcg2


@<TRIPOS>ATOM
      1 C1         118.4370    13.2030    65.6440 c3         1 D62       0.144900
      2 N2         115.5700     9.8900    58.1640 n          1 D62      -0.186800
      3 C3         117.9710    11.4380    63.4910 ca         1 D62      -0.181000
      4 C4         117.7170    10.5950    62.4080 ca         1 D62      -0.087000
      5 C5         116.9170    11.0160    61.3520 ca         1 D62      -0.128900
      6 C6         116.6090    10.1470    60.2050 ce         1 D62       0.414900
      7 C12        113.8970    16.1690    58.6180 ca         1 D62       0.201300
      8 C13        115.9760    16.4620    57.2910 cc         1 D62      -0.197400
      9 C14        115.3450    15.3030    56.9840 cd         1 D62      -0.130200
     10 C15        114.1210    15.1030    57.7210 ca         1 D62      -0.269800
     11 C16        112.3480    11.7780    57.3860 c6         1 D62       0.210800
     12 C17        113.3150    10.8640    58.1380 c6         1 D62      -0.120900
     13 C18        116.1380     8.6940    57.8280 c          1 D62       0.558000
     14 C20        117.5780     6.7730    58.6600 c6         1 D62      -0.029200
     15 C21        116.6650     5.9270    59.5000 c2         1 D62      -0.211200
     16 C22        115.8470     6.4150    60.4280 c2         1 D62      -0.223200
     17 C23        115.7500     7.8750    60.7650 c6         1 D62      -0.037200
     18 C26        116.6070    13.1540    62.4690 ca         1 D62       0.108100
     19 O1         117.6130    13.5980    64.5470 os         1 D62      -0.324100
     20 C2         117.4280    12.7130    63.5380 ca         1 D62       0.128100
     21 N1         115.9740    10.6770    59.2230 n2         1 D62      -0.459300
     22 C7         114.5720    10.5530    57.3130 c6         1 D62       0.136700
     23 C8         115.1830    11.7940    56.6500 c6         1 D62      -0.120900
     24 C9         114.0960    12.6350    55.9850 c6         1 D62       0.210800
     25 N3         113.0660    12.9850    56.9580 nh         1 D62      -0.756300
     26 C10        113.1310    14.0650    57.7850 ca         1 D62       0.462900
     27 N4         112.1690    14.1450    58.7160 nb         1 D62      -0.337000
     28 C11        112.0910    15.2140    59.5170 ca         1 D62       0.404900
     29 N5         111.0560    15.2360    60.4080 nv         1 D62      -1.045900
     30 N6         112.9060    16.2730    59.5040 nb         1 D62      -0.254000
     31 S1         115.1370    17.3860    58.5000 ss         1 D62      -0.139900
     32 O2         115.7940     8.0640    56.8310 o          1 D62      -0.542000
     33 C19        117.2600     8.2630    58.7570 c6         1 D62      -0.137700
     34 C24        116.9360     8.6810    60.1950 c6         1 D62      -0.129000
     35 C25        116.3650    12.3120    61.4040 ca         1 D62      -0.139000
     36 C27        115.2610    14.8840    61.5320 c3         1 D62       0.142900
     37 H1         118.4510    14.0510    66.3240 h1         1 D62       0.043033
     38 H2         118.0200    12.3300    66.1510 h1         1 D62       0.043033
     39 H3         119.4530    12.9820    65.3090 h1         1 D62       0.043033
     40 H4         118.5980    11.0860    64.2960 ha         1 D62       0.121000
     41 H5         118.1620     9.6110    62.4100 ha         1 D62       0.114000
     42 H7         115.7690    14.6200    56.2710 ha         1 D62       0.198000
     43 H8         111.5080    12.0530    58.0130 h1         1 D62       0.067450
     44 H9         111.9660    11.2900    56.4870 h1         1 D62       0.067450
     45 H10        113.6080    11.3590    59.0660 hc         1 D62       0.064950
     46 H11        112.8180     9.9280    58.4050 hc         1 D62       0.064950
     47 H12        117.5190     6.4570    57.6170 hc         1 D62       0.064700
     48 H13        118.6160     6.6100    58.9690 hc         1 D62       0.064700
     49 H14        116.6940     4.8570    59.3220 ha         1 D62       0.178000
     50 H15        115.2020     5.7430    60.9850 ha         1 D62       0.177000
     51 H16        115.7180     8.0090    61.8490 hc         1 D62       0.057700
     52 H17        114.8040     8.2790    60.3870 hc         1 D62       0.057700
     53 H18        114.3180     9.8310    56.5400 h1         1 D62       0.081700
     54 H19        115.9280    11.4850    55.9130 hc         1 D62       0.064950
     55 H20        115.6900    12.3920    57.4090 hc         1 D62       0.064950
     56 H21        113.6020    12.0540    55.2030 h1         1 D62       0.067450
     57 H22        114.4880    13.5220    55.5040 h1         1 D62       0.067450
     58 H23        110.6060    14.3570    60.6040 hn         1 D62       0.485000
     59 H24        111.1370    15.8770    61.1810 hn         1 D62       0.485000
     60 H25        118.1340     8.8370    58.4260 hc         1 D62       0.076700
     61 H26        117.8140     8.4740    60.8040 hc         1 D62       0.074700
     62 H27        115.7370    12.6330    60.5890 ha         1 D62       0.140000
     63 H28        114.9710    15.8930    61.8120 h1         1 D62       0.046367
     64 H29        115.7980    14.9080    60.5810 h1         1 D62       0.046367
     65 H30        114.3700    14.2610    61.4290 h1         1 D62       0.046367
     66 O3         116.1010    14.4090    62.5840 os         1 D62      -0.329100
     67 H6         116.9010    16.8330    56.8810 h4         1 D62       0.219000
@<TRIPOS>BOND
     1     1    19 1   
     2     1    37 1   
     3     1    38 1   
     4     1    39 1   
     5     2    13 1   
     6     2    21 1   
     7     2    22 1   
     8     3     4 ar  
     9     3    20 ar  
    10     3    40 1   
    11     4     5 ar  
    12     4    41 1   
    13     5     6 1   
    14     5    35 ar  
    15     6    21 2   
    16     6    34 1   
    17     7    10 ar  
    18     7    30 ar  
    19     7    31 1   
    20     8     9 2   
    21     8    31 1   
    22     8    67 1   
    23     9    10 1   
    24     9    42 1   
    25    10    26 ar  
    26    11    12 1   
    27    11    25 1   
    28    11    43 1   
    29    11    44 1   
    30    12    22 1   
    31    12    45 1   
    32    12    46 1   
    33    13    32 2   
    34    13    33 1   
    35    14    15 1   
    36    14    33 1   
    37    14    47 1   
    38    14    48 1   
    39    15    16 2   
    40    15    49 1   
    41    16    17 1   
    42    16    50 1   
    43    17    34 1   
    44    17    51 1   
    45    17    52 1   
    46    18    20 ar  
    47    18    35 ar  
    48    18    66 1   
    49    19    20 1   
    50    22    23 1   
    51    22    53 1   
    52    23    24 1   
    53    23    54 1   
    54    23    55 1   
    55    24    25 1   
    56    24    56 1   
    57    24    57 1   
    58    25    26 1   
    59    26    27 ar  
    60    27    28 ar  
    61    28    29 1   
    62    28    30 ar  
    63    29    58 1   
    64    29    59 1   
    65    33    34 1   
    66    33    60 1   
    67    34    61 1   
    68    35    62 1   
    69    36    63 1   
    70    36    64 1   
    71    36    65 1   
    72    36    66 1   
@<TRIPOS>SUBSTRUCTURE
     1 D62         1 TEMP              0 ****  ****    0 ROOT
