@<TRIPOS>MOLECULE
D62
   67    72     1     0     0
SMALL
No Charge or Current Charge


@<TRIPOS>ATOM
      1 C1         119.2030    12.6890    65.6150 c3         1 D62       0.144900
      2 N2         116.0470     9.8890    57.9640 n          1 D62      -0.186800
      3 C3         118.7160    11.0210    63.2890 ca         1 D62      -0.181000
      4 C4         118.4600    10.2320    62.1550 ca         1 D62      -0.087000
      5 C5         117.6540    10.7170    61.1040 ca         1 D62      -0.128900
      6 C6         117.3890     9.8850    59.8770 ce         1 D62       0.414900
      7 C12        112.4780    16.7510    58.2820 ca         1 D62       0.201300
      8 C13        114.9310    17.2410    58.5780 cc         1 D62      -0.197400
      9 C14        114.6530    15.9170    58.2990 cd         1 D62      -0.130200
     10 C15        113.2480    15.6220    58.1190 ca         1 D62      -0.269800
     11 C16        112.7470    11.9030    58.1300 c6         1 D62       0.210800
     12 C17        113.8860    10.9630    58.5850 c6         1 D62      -0.120900
     13 C18        116.0230     8.4780    57.7810 c          1 D62       0.558000
     14 C20        116.8680     6.1550    58.6960 c6         1 D62      -0.029200
     15 C21        115.8850     5.7670    59.7880 c2         1 D62      -0.211200
     16 C22        115.5080     6.5990    60.7730 c2         1 D62      -0.223200
     17 C23        116.0090     8.0290    60.9090 c6         1 D62      -0.037200
     18 C26        117.3800    12.8310    62.3390 ca         1 D62       0.108100
     19 O1         118.4070    13.1240    64.4980 os         1 D62      -0.324100
     20 C2         118.1760    12.3220    63.3920 ca         1 D62       0.128100
     21 N1         117.0100    10.4730    58.7810 n2         1 D62      -0.459300
     22 C7         114.9520    10.7730    57.4730 c6         1 D62       0.136700
     23 C8         115.4580    12.1660    56.9970 c6         1 D62      -0.120900
     24 C9         114.2830    13.0650    56.5600 c6         1 D62       0.210800
     25 N3         113.3160    13.1990    57.6790 nh         1 D62      -0.756300
     26 C10        112.6040    14.4030    57.8480 ca         1 D62       0.462900
     27 N4         111.2590    14.3530    57.7670 nb         1 D62      -0.337000
     28 C11        110.6120    15.5160    57.9410 ca         1 D62       0.404900
     29 N5         109.2640    15.4530    57.8540 nv         1 D62      -1.045900
     30 N6         111.1380    16.7270    58.1960 nb         1 D62      -0.254000
     31 S1         113.4320    18.2170    58.6370 ss         1 D62      -0.139900
     32 O2         115.2300     7.9280    57.0240 o          1 D62      -0.542000
     33 C19        117.0830     7.6920    58.5930 c6         1 D62      -0.137700
     34 C24        117.2390     8.3510    60.0070 c6         1 D62      -0.129000
     35 C25        117.1330    12.0290    61.2020 ca         1 D62      -0.139000
     36 C27        116.0440    14.7140    61.4340 c3         1 D62       0.142900
     37 H1         119.2530    13.4770    66.3760 h1         1 D62       0.043033
     38 H2         118.7680    11.7950    66.0800 h1         1 D62       0.043033
     39 H3         120.2280    12.4590    65.2970 h1         1 D62       0.043033
     40 H4         119.3390    10.6050    64.0750 ha         1 D62       0.121000
     41 H5         118.9020     9.2400    62.1040 ha         1 D62       0.114000
     42 H7         115.4340    15.1630    58.2330 ha         1 D62       0.198000
     43 H8         112.0580    12.0520    58.9750 h1         1 D62       0.067450
     44 H9         112.1750    11.4300    57.3180 h1         1 D62       0.067450
     45 H10        114.3550    11.3780    59.4870 hc         1 D62       0.064950
     46 H11        113.4650     9.9900    58.8710 hc         1 D62       0.064950
     47 H12        116.5370     5.7500    57.7290 hc         1 D62       0.064700
     48 H13        117.8290     5.6680    58.9090 hc         1 D62       0.064700
     49 H14        115.4890     4.7500    59.7400 ha         1 D62       0.178000
     50 H15        114.7990     6.2650    61.5340 ha         1 D62       0.177000
     51 H16        116.2630     8.2270    61.9590 hc         1 D62       0.057700
     52 H17        115.1790     8.7080    60.6670 hc         1 D62       0.057700
     53 H18        114.4670    10.2870    56.6140 h1         1 D62       0.081700
     54 H19        116.1620    12.0440    56.1630 hc         1 D62       0.064950
     55 H20        116.0050    12.6780    57.8000 hc         1 D62       0.064950
     56 H21        113.7880    12.6250    55.6810 h1         1 D62       0.067450
     57 H22        114.6720    14.0460    56.2510 h1         1 D62       0.067450
     58 H23        108.8220    14.5380    57.8800 hn         1 D62       0.485000
     59 H24        108.7150    16.2390    58.1940 hn         1 D62       0.485000
     60 H25        118.0310     7.8960    58.0750 hc         1 D62       0.076700
     61 H26        118.1400     7.9300    60.4720 hc         1 D62       0.074700
     62 H27        116.5220    12.4130    60.3910 ha         1 D62       0.140000
     63 H28        115.7400    15.7240    61.7350 h1         1 D62       0.046367
     64 H29        116.5980    14.7940    60.4900 h1         1 D62       0.046367
     65 H30        115.1340    14.1250    61.2600 h1         1 D62       0.046367
     66 O3         116.8600    14.1110    62.4560 os         1 D62      -0.329100
     67 H6         115.8920    17.7130    58.7560 h4         1 D62       0.219000
@<TRIPOS>BOND
     1     1    19 1   
     2     1    37 1   
     3     1    38 1   
     4     1    39 1   
     5     2    13 1   
     6     2    21 1   
     7     2    22 1   
     8     3     4 ar  
     9     3    20 ar  
    10     3    40 1   
    11     4     5 ar  
    12     4    41 1   
    13     5     6 1   
    14     5    35 ar  
    15     6    21 2   
    16     6    34 1   
    17     7    10 ar  
    18     7    30 ar  
    19     7    31 1   
    20     8     9 2   
    21     8    31 1   
    22     8    67 1   
    23     9    10 1   
    24     9    42 1   
    25    10    26 ar  
    26    11    12 1   
    27    11    25 1   
    28    11    43 1   
    29    11    44 1   
    30    12    22 1   
    31    12    45 1   
    32    12    46 1   
    33    13    32 2   
    34    13    33 1   
    35    14    15 1   
    36    14    33 1   
    37    14    47 1   
    38    14    48 1   
    39    15    16 2   
    40    15    49 1   
    41    16    17 1   
    42    16    50 1   
    43    17    34 1   
    44    17    51 1   
    45    17    52 1   
    46    18    20 ar  
    47    18    35 ar  
    48    18    66 1   
    49    19    20 1   
    50    22    23 1   
    51    22    53 1   
    52    23    24 1   
    53    23    54 1   
    54    23    55 1   
    55    24    25 1   
    56    24    56 1   
    57    24    57 1   
    58    25    26 1   
    59    26    27 ar  
    60    27    28 ar  
    61    28    29 1   
    62    28    30 ar  
    63    29    58 1   
    64    29    59 1   
    65    33    34 1   
    66    33    60 1   
    67    34    61 1   
    68    35    62 1   
    69    36    63 1   
    70    36    64 1   
    71    36    65 1   
    72    36    66 1   
@<TRIPOS>SUBSTRUCTURE
     1 D62         1 TEMP              0 ****  ****    0 ROOT
