@<TRIPOS>MOLECULE
D63
   44    47     1     0     0
SMALL
No Charge or Current Charge


@<TRIPOS>ATOM
      1 NAA          8.8630     0.1650    -0.5890 nv         1 D63      -1.033200
      2 NAB          7.9710     2.1190     0.0460 n2         1 D63      -0.845100
      3 NAC         -8.9210    -0.7550    -0.4590 nt         1 D63      -0.604000
      4 OAD         -8.7810     1.2990     0.3570 o          1 D63      -0.602100
      5 CAE         -5.9040     1.2600     0.4490 ca         1 D63      -0.072000
      6 CAF         -6.0210    -0.9920    -0.4470 ca         1 D63      -0.072000
      7 CAG         -4.5010     1.1790     0.4680 ca         1 D63      -0.108500
      8 CAH         -4.6180    -1.0690    -0.4240 ca         1 D63      -0.108500
      9 CAI         -1.6690    -1.2910     0.3420 ca         1 D63      -0.101500
     10 CAJ         -1.5260     1.0610    -0.2120 ca         1 D63      -0.101500
     11 CAK         -0.2660    -1.3740     0.3640 ca         1 D63      -0.082500
     12 CAL         -0.1230     0.9820    -0.1930 ca         1 D63      -0.082500
     13 CAM          6.4440    -1.2040     0.3390 ca         1 D63      -0.069000
     14 CAN          5.2010    -1.8540     0.4880 ca         1 D63      -0.119000
     15 CAO          5.2930     0.9000    -0.1610 ca         1 D63      -0.028000
     16 NAP          2.7370    -1.4930     0.3930 na         1 D63      -0.306600
     17 NAQ          2.7950     0.7470    -0.1310 nc         1 D63      -0.568100
     18 CAR          7.8220     0.8720    -0.1190 ce         1 D63       0.662800
     19 CAT         -6.6860     0.1770    -0.0080 ca         1 D63      -0.147600
     20 CAU          6.5070     0.1770    -0.0030 ca         1 D63      -0.218900
     21 CAV         -3.8270     0.0130     0.0330 cp         1 D63      -0.018000
     22 CAW         -2.3310    -0.0730     0.0550 cp         1 D63      -0.023000
     23 CAX          0.5290    -0.2380     0.0960 ca         1 D63      -0.110900
     24 CAY          2.0100    -0.3240     0.1180 cd         1 D63       0.473400
     25 CAZ          4.0400    -1.0980     0.3010 ca         1 D63      -0.069200
     26 CBA          4.0710     0.2280    -0.0080 ca         1 D63       0.067400
     27 HNAA         9.6070     0.7410    -0.9610 hn         1 D63       0.467500
     28 HNAB         8.6230    -0.6540    -1.1330 hn         1 D63       0.467500
     29 HNAC         7.1110     2.4850     0.4730 hn         1 D63       0.389400
     30 HNAD        -9.9270    -0.6870    -0.4700 hn         1 D63       0.314500
     31 HNAE        -8.4610    -1.5950    -0.7730 hn         1 D63       0.314500
     32 HAE         -6.3820     2.1740     0.7970 ha         1 D63       0.125000
     33 HAF         -6.5770    -1.8520    -0.8120 ha         1 D63       0.125000
     34 HAG         -3.9330     2.0270     0.8400 ha         1 D63       0.119500
     35 HAH         -4.1380    -1.9770    -0.7810 ha         1 D63       0.119500
     36 HAI         -2.2500    -2.1830     0.5670 ha         1 D63       0.121000
     37 HAJ         -1.9930     2.0130    -0.4510 ha         1 D63       0.121000
     38 HAK          0.1920    -2.3330     0.5950 ha         1 D63       0.124500
     39 HAL          0.4530     1.8790    -0.4070 ha         1 D63       0.124500
     40 HAM          7.3560    -1.7750     0.5020 ha         1 D63       0.125000
     41 HAN          5.1510    -2.9090     0.7460 ha         1 D63       0.121000
     42 HAO          5.2910     1.9570    -0.4140 ha         1 D63       0.135000
     43 HNAP         2.3660    -2.4080     0.6070 hn         1 D63       0.359000
     44 CAS         -8.1960     0.2960    -0.0180 c          1 D63       0.616700
@<TRIPOS>BOND
     1     1    18 1   
     2     1    27 1   
     3     1    28 1   
     4     2    18 2   
     5     2    29 1   
     6     3    30 1   
     7     3    31 1   
     8     3    44 1   
     9     4    44 2   
    10     5     7 ar  
    11     5    19 ar  
    12     5    32 1   
    13     6     8 ar  
    14     6    19 ar  
    15     6    33 1   
    16     7    21 ar  
    17     7    34 1   
    18     8    21 ar  
    19     8    35 1   
    20     9    11 ar  
    21     9    22 ar  
    22     9    36 1   
    23    10    12 ar  
    24    10    22 ar  
    25    10    37 1   
    26    11    23 ar  
    27    11    38 1   
    28    12    23 ar  
    29    12    39 1   
    30    13    14 ar  
    31    13    20 ar  
    32    13    40 1   
    33    14    25 ar  
    34    14    41 1   
    35    15    20 ar  
    36    15    26 ar  
    37    15    42 1   
    38    16    24 1   
    39    16    25 1   
    40    16    43 1   
    41    17    24 2   
    42    17    26 1   
    43    18    20 1   
    44    19    44 1   
    45    21    22 1   
    46    23    24 1   
    47    25    26 ar  
@<TRIPOS>SUBSTRUCTURE
     1 D63         1 TEMP              0 ****  ****    0 ROOT
