@<TRIPOS>MOLECULE
D63
   44    47     1     0     0
SMALL
bcc


@<TRIPOS>ATOM
      1 NAA          8.7250     0.1610    -0.5690 nv         1 D63      -0.922800
      2 NAB          7.9330     2.0630     0.4340 n2         1 D63      -0.845100
      3 NAC         -8.7830    -0.8200    -0.0570 nt         1 D63      -0.671000
      4 OAD         -8.6000     1.4240    -0.1500 o          1 D63      -0.602100
      5 CAE         -5.8220     1.2660     0.3170 ca         1 D63      -0.090000
      6 CAF         -5.9340    -0.9880    -0.4880 ca         1 D63      -0.090000
      7 CAG         -4.4410     1.1870     0.3460 ca         1 D63      -0.126500
      8 CAH         -4.5520    -1.0640    -0.4670 ca         1 D63      -0.126500
      9 CAI         -1.6740    -1.2540     0.3550 ca         1 D63      -0.119500
     10 CAJ         -1.5160     1.0330    -0.3360 ca         1 D63      -0.119500
     11 CAK         -0.2930    -1.3400     0.3900 ca         1 D63      -0.100500
     12 CAL         -0.1370     0.9500    -0.3080 ca         1 D63      -0.100500
     13 CAM          6.3420    -1.2090     0.2340 ca         1 D63      -0.087000
     14 CAN          5.1430    -1.8890     0.3250 ca         1 D63      -0.137000
     15 CAO          5.2290     0.9290    -0.0560 ca         1 D63      -0.046000
     16 NAP          2.6570    -1.4490     0.2480 na         1 D63      -0.256300
     17 NAQ          2.7340     0.7470    -0.0620 nc         1 D63      -0.568100
     18 CAR          7.7110     0.8870    -0.0160 ce         1 D63       0.662800
     19 CAT         -6.5870     0.1750    -0.0880 ca         1 D63      -0.147600
     20 CAU          6.3970     0.1870     0.0490 ca         1 D63      -0.218900
     21 CAV         -3.7820     0.0200    -0.0430 cp         1 D63      -0.018000
     22 CAW         -2.3110    -0.0680    -0.0090 cp         1 D63      -0.023000
     23 CAX          0.4950    -0.2400     0.0550 ca         1 D63      -0.110900
     24 CAY          1.9540    -0.2940     0.0770 cd         1 D63       0.473400
     25 CAZ          3.9840    -1.1310     0.2150 ca         1 D63      -0.069200
     26 CBA          4.0110     0.2610     0.0220 ca         1 D63       0.067400
     27 HNAA         9.5850     0.6590    -0.7350 hn         1 D63       0.412300
     28 HNAB         8.4960    -0.5130    -1.2800 hn         1 D63       0.412300
     29 HNAC         7.1150     2.4240     0.9100 hn         1 D63       0.389400
     30 HNAD        -9.7890    -0.7820    -0.0530 hn         1 D63       0.314500
     31 HNAE        -8.3610    -1.7170     0.1060 hn         1 D63       0.314500
     32 HAE         -6.3080     2.1800     0.6300 ha         1 D63       0.143000
     33 HAF         -6.4890    -1.8440    -0.8520 ha         1 D63       0.143000
     34 HAG         -3.8730     2.0390     0.6970 ha         1 D63       0.137500
     35 HAH         -4.0700    -1.9700    -0.8090 ha         1 D63       0.137500
     36 HAI         -2.2580    -2.1190     0.6410 ha         1 D63       0.139000
     37 HAJ         -1.9780     1.9630    -0.6430 ha         1 D63       0.139000
     38 HAK          0.1510    -2.2760     0.7040 ha         1 D63       0.142500
     39 HAL          0.4580     1.8120    -0.5790 ha         1 D63       0.142500
     40 HAM          7.2630    -1.7690     0.3300 ha         1 D63       0.143000
     41 HAN          5.1150    -2.9590     0.4780 ha         1 D63       0.139000
     42 HAO          5.2560     1.9990    -0.2160 ha         1 D63       0.153000
     43 HNAP         2.2800    -2.3780     0.3540 hn         1 D63       0.308700
     44 CAS         -8.0760     0.3190    -0.1020 c          1 D63       0.683700
@<TRIPOS>BOND
     1     1    18 1   
     2     1    27 1   
     3     1    28 1   
     4     2    18 2   
     5     2    29 1   
     6     3    30 1   
     7     3    31 1   
     8     3    44 1   
     9     4    44 2   
    10     5     7 ar  
    11     5    19 ar  
    12     5    32 1   
    13     6     8 ar  
    14     6    19 ar  
    15     6    33 1   
    16     7    21 ar  
    17     7    34 1   
    18     8    21 ar  
    19     8    35 1   
    20     9    11 ar  
    21     9    22 ar  
    22     9    36 1   
    23    10    12 ar  
    24    10    22 ar  
    25    10    37 1   
    26    11    23 ar  
    27    11    38 1   
    28    12    23 ar  
    29    12    39 1   
    30    13    14 ar  
    31    13    20 ar  
    32    13    40 1   
    33    14    25 ar  
    34    14    41 1   
    35    15    20 ar  
    36    15    26 ar  
    37    15    42 1   
    38    16    24 1   
    39    16    25 1   
    40    16    43 1   
    41    17    24 2   
    42    17    26 1   
    43    18    20 1   
    44    19    44 1   
    45    21    22 1   
    46    23    24 1   
    47    25    26 ar  
@<TRIPOS>SUBSTRUCTURE
     1 D63         1 TEMP              0 ****  ****    0 ROOT
