@<TRIPOS>MOLECULE
D64
   33    35     1     0     0
SMALL
bcc


@<TRIPOS>ATOM
      1 C1           9.8710   -13.9450    13.8750 ca         1 D64       0.500600
      2 C2           8.7070   -13.7380    14.6450 ca         1 D64      -0.355600
      3 C3           8.6420   -12.4680    15.3260 ca         1 D64       0.772200
      4 N4           9.6130   -11.5880    15.2160 nb         1 D64      -0.873000
      5 C5          10.6750   -11.9090    14.4490 ca         1 D64       0.952900
      6 N6          10.8580   -13.0280    13.7780 nb         1 D64      -0.820000
      7 N7           7.5900   -12.1400    16.0800 nv         1 D64      -0.969500
      8 C8           9.9890   -15.1700    13.1810 ca         1 D64      -0.205300
      9 C9           9.0020   -16.1160    13.2540 ca         1 D64      -0.078000
     10 C12          7.8310   -15.9120    14.0180 cp         1 D64      -0.073000
     11 C13          7.7070   -14.7190    14.7000 ca         1 D64      -0.060000
     12 N14         11.6560   -10.9810    14.4060 nv         1 D64      -0.951500
     13 C26          5.4840   -18.6950    13.0130 ca         1 D64      -0.128000
     14 C27          4.7360   -18.9010    14.1700 ca         1 D64      -0.074300
     15 C22          5.0270   -18.1080    15.2780 ca         1 D64      -0.128000
     16 C23          6.0290   -17.1510    15.2340 ca         1 D64      -0.119500
     17 CAP          6.7770   -16.9430    14.0740 cp         1 D64      -0.028000
     18 C25          6.4840   -17.7370    12.9630 ca         1 D64      -0.119500
     19 H8          10.8810   -15.3490    12.5950 ha         1 D64       0.150000
     20 H13          6.8020   -14.5410    15.2680 ha         1 D64       0.119000
     21 H7N1         6.8490   -12.7830    16.2890 hn         1 D64       0.443300
     22 H7N2         7.5960   -11.2670    16.5810 hn         1 D64       0.443300
     23 H141        12.3780   -11.0790    13.7140 hn         1 D64       0.436800
     24 H142        11.4580   -10.0520    14.7320 hn         1 D64       0.436800
     25 H9           9.1330   -17.0510    12.7230 ha         1 D64       0.133000
     26 H22          4.4660   -18.2440    16.1960 ha         1 D64       0.128500
     27 H23          6.2400   -16.5700    16.1240 ha         1 D64       0.129500
     28 H25          7.0270   -17.5930    12.0370 ha         1 D64       0.129500
     29 H26          5.2750   -19.2870    12.1290 ha         1 D64       0.128500
     30 HAC1         2.9440   -19.7550    15.0090 hc         1 D64       0.042033
     31 HAC2         3.1350   -20.0290    13.2770 hc         1 D64       0.042033
     32 HAC3         4.1030   -20.9390    14.4240 hc         1 D64       0.042033
     33 CAC          3.6710   -19.9560    14.2230 c3         1 D64      -0.046800
@<TRIPOS>BOND
     1     1     2 ar  
     2     1     6 ar  
     3     1     8 ar  
     4     2     3 ar  
     5     2    11 ar  
     6     3     4 ar  
     7     3     7 1   
     8     4     5 ar  
     9     5     6 ar  
    10     5    12 1   
    11     7    21 1   
    12     7    22 1   
    13     8     9 ar  
    14     8    19 1   
    15     9    10 ar  
    16     9    25 1   
    17    10    11 ar  
    18    10    17 1   
    19    11    20 1   
    20    12    23 1   
    21    12    24 1   
    22    13    14 ar  
    23    13    18 ar  
    24    13    29 1   
    25    14    15 ar  
    26    14    33 1   
    27    15    16 ar  
    28    15    26 1   
    29    16    17 ar  
    30    16    27 1   
    31    17    18 ar  
    32    18    28 1   
    33    30    33 1   
    34    31    33 1   
    35    32    33 1   
@<TRIPOS>SUBSTRUCTURE
     1 D64         1 TEMP              0 ****  ****    0 ROOT
