@<TRIPOS>MOLECULE
D64
   33    35     1     0     0
SMALL
No Charge or Current Charge


@<TRIPOS>ATOM
      1 C1           9.9020   -13.9380    13.8710 ca         1 D64       0.107000
      2 C2           8.7300   -13.7000    14.6260 ca         1 D64      -0.225000
      3 C3           8.6420   -12.4590    15.2930 ca         1 D64       0.443900
      4 N4           9.6070   -11.5380    15.2270 nb         1 D64      -0.347000
      5 C5          10.6660   -11.8700    14.4880 ca         1 D64       0.426900
      6 N6          10.8740   -13.0040    13.8090 nb         1 D64      -0.294000
      7 N7           7.5860   -12.0890    16.0630 nv         1 D64      -1.079900
      8 C8          10.0380   -15.1570    13.1860 ca         1 D64      -0.122000
      9 C9           9.0270   -16.1300    13.2450 ca         1 D64      -0.060000
     10 C12          7.8450   -15.9130    13.9940 cp         1 D64      -0.073000
     11 C13          7.7140   -14.6810    14.6820 ca         1 D64      -0.042000
     12 N14         11.6450   -10.9420    14.4140 nv         1 D64      -1.061900
     13 C26          5.4580   -18.7390    12.9850 ca         1 D64      -0.110000
     14 C27          4.7180   -18.9290    14.1650 ca         1 D64      -0.074300
     15 C22          5.0020   -18.1360    15.2910 ca         1 D64      -0.110000
     16 C23          6.0120   -17.1600    15.2350 ca         1 D64      -0.101500
     17 CAP          6.7670   -16.9520    14.0530 cp         1 D64      -0.028000
     18 C25          6.4690   -17.7640    12.9300 ca         1 D64      -0.101500
     19 H8          10.9360   -15.3520    12.6050 ha         1 D64       0.132000
     20 H13          6.8040   -14.4920    15.2450 ha         1 D64       0.101000
     21 H7N1         6.9610   -12.8130    16.4060 hn         1 D64       0.498500
     22 H7N2         7.7000   -11.2750    16.6610 hn         1 D64       0.498500
     23 H141        12.3460   -11.0470    13.6850 hn         1 D64       0.492000
     24 H142        11.4300    -9.9930    14.7080 hn         1 D64       0.492000
     25 H9           9.1710   -17.0680    12.7140 ha         1 D64       0.115000
     26 H22          4.4430   -18.2770    16.2130 ha         1 D64       0.110500
     27 H23          6.2210   -16.5700    16.1230 ha         1 D64       0.111500
     28 H25          7.0170   -17.6290    12.0010 ha         1 D64       0.111500
     29 H26          5.2500   -19.3460    12.1070 ha         1 D64       0.110500
     30 HAC1         2.8310   -19.7010    14.9240 hc         1 D64       0.042033
     31 HAC2         3.1630   -20.1410    13.2450 hc         1 D64       0.042033
     32 HAC3         4.0340   -20.9490    14.5590 hc         1 D64       0.042033
     33 CAC          3.6270   -19.9870    14.2260 c3         1 D64      -0.046800
@<TRIPOS>BOND
     1     1     2 ar  
     2     1     6 ar  
     3     1     8 ar  
     4     2     3 ar  
     5     2    11 ar  
     6     3     4 ar  
     7     3     7 1   
     8     4     5 ar  
     9     5     6 ar  
    10     5    12 1   
    11     7    21 1   
    12     7    22 1   
    13     8     9 ar  
    14     8    19 1   
    15     9    10 ar  
    16     9    25 1   
    17    10    11 ar  
    18    10    17 1   
    19    11    20 1   
    20    12    23 1   
    21    12    24 1   
    22    13    14 ar  
    23    13    18 ar  
    24    13    29 1   
    25    14    15 ar  
    26    14    33 1   
    27    15    16 ar  
    28    15    26 1   
    29    16    17 ar  
    30    16    27 1   
    31    17    18 ar  
    32    18    28 1   
    33    30    33 1   
    34    31    33 1   
    35    32    33 1   
@<TRIPOS>SUBSTRUCTURE
     1 D64         1 TEMP              0 ****  ****    0 ROOT
