@<TRIPOS>MOLECULE
D66
   49    49     1     0     0
SMALL
No Charge or Current Charge


@<TRIPOS>ATOM
      1 C1           7.9420    -0.7390     1.5510 c3         1 D66       0.153900
      2 N1           0.9860     1.3810     1.1840 n8         1 D66      -1.022200
      3 O1           6.8270    -1.4840     1.0300 os         1 D66      -0.351100
      4 C2           5.6920    -0.8660     0.5450 ca         1 D66       0.122100
      5 N2          -2.2670    -0.5800    -0.8640 ns         1 D66      -0.434900
      6 O2          -0.6270     2.6380    -0.8110 oh         1 D66      -0.677000
      7 C3           4.6580    -1.6810     0.0570 ca         1 D66      -0.171500
      8 O3          -2.2780     0.9430     0.8450 o          1 D66      -0.642100
      9 C4           3.4790    -1.1090    -0.4500 ca         1 D66      -0.062500
     10 C5           3.3210     0.2910    -0.4720 ca         1 D66      -0.081300
     11 C6           2.0430     0.9100    -1.0360 c3         1 D66      -0.019100
     12 C7           0.7970     0.7140    -0.1280 c3         1 D66       0.168500
     13 C8          -0.5180     1.1860    -0.8280 c3         1 D66       0.040300
     14 C9          -1.7620     0.5080    -0.1780 c          1 D66       0.559100
     15 C10         -3.4690    -1.3630    -0.4820 c3         1 D66      -0.049300
     16 C11         -4.7020    -0.9880    -1.3500 c3         1 D66      -0.070400
     17 C12         -5.2440     0.4590    -1.1760 c3         1 D66      -0.062700
     18 C13         -6.3030     0.7850    -2.2540 c3         1 D66      -0.083600
     19 C14         -5.8160     0.7150     0.2400 c3         1 D66      -0.083600
     20 C15         -3.1610    -2.8890    -0.5750 c          1 D66       0.716000
     21 C16          4.3590     1.1090     0.0140 ca         1 D66      -0.062500
     22 C17          5.5400     0.5380     0.5220 ca         1 D66      -0.171500
     23 H1           7.6360    -0.1310     2.4120 h1         1 D66       0.033033
     24 H1A          8.7340    -1.4230     1.8820 h1         1 D66       0.033033
     25 H1B          8.3620    -0.0780     0.7830 h1         1 D66       0.033033
     26 HN1          1.0220     2.3920     1.0100 hn         1 D66       0.430000
     27 HN1A         0.1210     1.2780     1.7300 hn         1 D66       0.430000
     28 HN2         -1.7680    -0.8670    -1.6980 hn         1 D66       0.297500
     29 HO2         -1.2530     2.8630    -0.0830 ho         1 D66       0.473000
     30 H3           4.7720    -2.7610     0.0710 ha         1 D66       0.111000
     31 H4           2.6880    -1.7530    -0.8280 ha         1 D66       0.110000
     32 H6           2.1860     1.9810    -1.2260 hc         1 D66       0.043200
     33 H6A          1.8370     0.4610    -2.0160 hc         1 D66       0.043200
     34 H7           0.7000    -0.3670     0.0580 h1         1 D66       0.060700
     35 H8          -0.4880     0.8380    -1.8700 h1         1 D66       0.050700
     36 H10         -3.7010    -1.1640     0.5710 h1         1 D66       0.069700
     37 H11         -4.4410    -1.1480    -2.4040 hc         1 D66       0.050700
     38 H11A        -5.5140    -1.6930    -1.1280 hc         1 D66       0.050700
     39 H12         -4.4120     1.1560    -1.3280 hc         1 D66       0.033700
     40 H13         -7.1710     0.1220    -2.1630 hc         1 D66       0.025200
     41 H13A        -6.6500     1.8210    -2.1570 hc         1 D66       0.025200
     42 H13B        -5.8820     0.6650    -3.2600 hc         1 D66       0.025200
     43 H14         -5.0500     0.5850     1.0110 hc         1 D66       0.025200
     44 H14A        -6.1960     1.7410     0.3220 hc         1 D66       0.025200
     45 H14B        -6.6430     0.0280     0.4570 hc         1 D66       0.025200
     46 H16          4.2510     2.1920     0.0010 ha         1 D66       0.110000
     47 H17          6.3200     1.1970     0.8900 ha         1 D66       0.111000
     48 O4          -2.6640    -3.3220    -1.6070 o          1 D66      -0.720500
     49 O5          -3.3510    -3.5770     0.4180 o          1 D66      -0.720500
@<TRIPOS>BOND
     1     1     3 1   
     2     1    23 1   
     3     1    24 1   
     4     1    25 1   
     5     2    12 1   
     6     2    26 1   
     7     2    27 1   
     8     3     4 1   
     9     4     7 ar  
    10     4    22 ar  
    11     5    14 1   
    12     5    15 1   
    13     5    28 1   
    14     6    13 1   
    15     6    29 1   
    16     7     9 ar  
    17     7    30 1   
    18     8    14 2   
    19     9    10 ar  
    20     9    31 1   
    21    10    11 1   
    22    10    21 ar  
    23    11    12 1   
    24    11    32 1   
    25    11    33 1   
    26    12    13 1   
    27    12    34 1   
    28    13    14 1   
    29    13    35 1   
    30    15    16 1   
    31    15    20 1   
    32    15    36 1   
    33    16    17 1   
    34    16    37 1   
    35    16    38 1   
    36    17    18 1   
    37    17    19 1   
    38    17    39 1   
    39    18    40 1   
    40    18    41 1   
    41    18    42 1   
    42    19    43 1   
    43    19    44 1   
    44    19    45 1   
    45    20    48 1   
    46    20    49 1   
    47    21    22 ar  
    48    21    46 1   
    49    22    47 1   
@<TRIPOS>SUBSTRUCTURE
     1 D66         1 TEMP              0 ****  ****    0 ROOT
