@<TRIPOS>MOLECULE
D66
   49    49     1     0     0
SMALL
bcc


@<TRIPOS>ATOM
      1 C1           7.1460    -1.9180     0.4370 c3         1 D66       0.130700
      2 N1           0.7910     0.6550     1.4830 n8         1 D66      -0.911800
      3 O1           6.2620    -1.7300    -0.6470 os         1 D66      -0.327900
      4 C2           5.2520    -0.8450    -0.5050 ca         1 D66       0.122100
      5 N2          -2.2810     0.3310    -0.2050 ns         1 D66      -0.501900
      6 O2          -0.4280     3.2900     0.6280 oh         1 D66      -0.614800
      7 C3           4.3850    -0.7110    -1.5910 ca         1 D66      -0.189500
      8 O3          -2.3980     1.8380     1.4790 o          1 D66      -0.642100
      9 C4           3.3230     0.1740    -1.5270 ca         1 D66      -0.080500
     10 C5           3.0840     0.9500    -0.3920 ca         1 D66      -0.081300
     11 C6           1.9050     1.8750    -0.3280 c3         1 D66      -0.019100
     12 C7           0.6300     1.1570     0.1360 c3         1 D66       0.168500
     13 C8          -0.5940     2.0800    -0.0560 c3         1 D66       0.017100
     14 C9          -1.8520     1.3930     0.4730 c          1 D66       0.626100
     15 C10         -3.2760    -0.5880     0.2990 c3         1 D66      -0.049300
     16 C11         -3.9830    -1.2820    -0.8610 c3         1 D66      -0.070400
     17 C12         -4.7470    -0.3640    -1.8180 c3         1 D66      -0.062700
     18 C13         -5.3900    -1.1960    -2.9240 c3         1 D66      -0.083600
     19 C14         -5.8030     0.4670    -1.0970 c3         1 D66      -0.083600
     20 C15         -2.6850    -1.6160     1.3040 c          1 D66       0.926600
     21 C16          3.9560     0.8040     0.6770 ca         1 D66      -0.080500
     22 C17          5.0330    -0.0760     0.6350 ca         1 D66      -0.189500
     23 H1           6.6270    -2.2780     1.3300 h1         1 D66       0.033033
     24 H1A          7.8670    -2.6700     0.1250 h1         1 D66       0.033033
     25 H1B          7.6850    -1.0010     0.6910 h1         1 D66       0.033033
     26 HN1          0.7310     1.4150     2.1500 hn         1 D66       0.374800
     27 HN1A         0.0480    -0.0050     1.6940 hn         1 D66       0.374800
     28 HN2         -1.7190     0.0130    -0.9800 hn         1 D66       0.297500
     29 HO2         -1.0710     3.2730     1.3550 ho         1 D66       0.434000
     30 H3           4.5520    -1.3030    -2.4830 ha         1 D66       0.129000
     31 H4           2.6640     0.2630    -2.3830 ha         1 D66       0.128000
     32 H6           2.1160     2.7040     0.3520 hc         1 D66       0.043200
     33 H6A          1.7280     2.3150    -1.3130 hc         1 D66       0.043200
     34 H7           0.4920     0.2910    -0.5220 h1         1 D66       0.060700
     35 H8          -0.7190     2.2770    -1.1300 h1         1 D66       0.050700
     36 H10         -4.0100     0.0010     0.8550 h1         1 D66       0.069700
     37 H11         -3.2480    -1.8640    -1.4320 hc         1 D66       0.050700
     38 H11A        -4.6770    -2.0080    -0.4330 hc         1 D66       0.050700
     39 H12         -4.0350     0.3230    -2.2890 hc         1 D66       0.033700
     40 H13         -6.1110    -1.9050    -2.5080 hc         1 D66       0.025200
     41 H13A        -5.9220    -0.5640    -3.6370 hc         1 D66       0.025200
     42 H13B        -4.6460    -1.7690    -3.4810 hc         1 D66       0.025200
     43 H14         -5.3650     1.1650    -0.3820 hc         1 D66       0.025200
     44 H14A        -6.3860     1.0560    -1.8060 hc         1 D66       0.025200
     45 H14B        -6.4990    -0.1740    -0.5510 hc         1 D66       0.025200
     46 H16          3.8030     1.3920     1.5740 ha         1 D66       0.128000
     47 H17          5.6830    -0.1450     1.4970 ha         1 D66       0.129000
     48 O4          -1.4780    -1.5240     1.5980 o          1 D66      -0.825800
     49 O5          -3.4990    -2.4500     1.7410 o          1 D66      -0.825800
@<TRIPOS>BOND
     1     1     3 1   
     2     1    23 1   
     3     1    24 1   
     4     1    25 1   
     5     2    12 1   
     6     2    26 1   
     7     2    27 1   
     8     3     4 1   
     9     4     7 ar  
    10     4    22 ar  
    11     5    14 1   
    12     5    15 1   
    13     5    28 1   
    14     6    13 1   
    15     6    29 1   
    16     7     9 ar  
    17     7    30 1   
    18     8    14 2   
    19     9    10 ar  
    20     9    31 1   
    21    10    11 1   
    22    10    21 ar  
    23    11    12 1   
    24    11    32 1   
    25    11    33 1   
    26    12    13 1   
    27    12    34 1   
    28    13    14 1   
    29    13    35 1   
    30    15    16 1   
    31    15    20 1   
    32    15    36 1   
    33    16    17 1   
    34    16    37 1   
    35    16    38 1   
    36    17    18 1   
    37    17    19 1   
    38    17    39 1   
    39    18    40 1   
    40    18    41 1   
    41    18    42 1   
    42    19    43 1   
    43    19    44 1   
    44    19    45 1   
    45    20    48 1   
    46    20    49 1   
    47    21    22 ar  
    48    21    46 1   
    49    22    47 1   
@<TRIPOS>SUBSTRUCTURE
     1 D66         1 TEMP              0 ****  ****    0 ROOT
