@<TRIPOS>MOLECULE
D67
   37    39     1     0     0
SMALL
No Charge or Current Charge


@<TRIPOS>ATOM
      1 C1           1.0020    -0.6250    -0.7610 ca         1 D67      -0.137000
      2 F1           5.2040     1.2250     0.6580 f          1 D67      -0.112667
      3 N1          -0.2190    -2.1740     0.6760 nu         1 D67      -0.975000
      4 C2           0.9220    -1.4180     0.3950 ca         1 D67       0.327000
      5 F2           4.2760     2.0150    -1.1350 f          1 D67      -0.112667
      6 N2          -2.1900    -0.7480     0.2840 na         1 D67       0.055900
      7 C3           2.0250    -1.4890     1.2570 ca         1 D67      -0.137000
      8 F3           5.3970     0.1540    -1.2240 f          1 D67      -0.112667
      9 N3          -1.6150     0.4550     0.5560 nc         1 D67      -0.545100
     10 C4           3.1910    -0.7500     0.9870 ca         1 D67      -0.032000
     11 F4          -3.7670     3.3680     0.3590 f          1 D67      -0.109000
     12 N4          -3.8360     0.6030    -0.0300 nd         1 D67      -0.368300
     13 C5           3.2660     0.0690    -0.1600 ca         1 D67      -0.211300
     14 F5          -2.0770     3.1230     1.6870 f          1 D67      -0.109000
     15 N5          -4.3630    -1.7000    -0.3150 nc         1 D67      -0.660000
     16 C6           2.1630     0.1170    -1.0390 ca         1 D67      -0.032000
     17 C7          -1.5580    -2.0030     0.3720 cc         1 D67       0.391000
     18 C8          -2.3980    -3.0660     0.1150 cd         1 D67      -0.305000
     19 C9          -3.7830    -2.8890    -0.2280 cd         1 D67       0.443300
     20 C10         -4.6750    -4.0620    -0.5180 c3         1 D67      -0.155400
     21 C11         -3.5140    -0.6690    -0.0380 cc         1 D67       0.437500
     22 C12         -2.6600     1.2520     0.3370 cd         1 D67       0.463300
     23 C13         -2.5550     2.7710     0.4680 c3         1 D67       0.199700
     24 C14         -1.6280     3.3830    -0.6060 c3         1 D67      -0.137100
     25 C16          4.5380     0.8690    -0.4640 c3         1 D67       0.360300
     26 H1           0.1650    -0.5840    -1.4510 ha         1 D67       0.126500
     27 HN1         -0.0360    -3.0320     1.1960 hn         1 D67       0.508000
     28 H3           1.9800    -2.1110     2.1460 ha         1 D67       0.126500
     29 H4           4.0330    -0.8220     1.6730 ha         1 D67       0.134000
     30 H6           2.2000     0.7240    -1.9420 ha         1 D67       0.134000
     31 H8          -1.9980    -4.0700     0.1580 ha         1 D67       0.141000
     32 H10         -5.0180    -4.0420    -1.5590 hc         1 D67       0.063367
     33 H10A        -4.1540    -5.0120    -0.3570 hc         1 D67       0.063367
     34 H10B        -5.5590    -4.0530     0.1300 hc         1 D67       0.063367
     35 H14         -0.6110     2.9830    -0.5150 hc         1 D67       0.070367
     36 H14A        -1.9990     3.1520    -1.6120 hc         1 D67       0.070367
     37 H14B        -1.5780     4.4730    -0.5000 hc         1 D67       0.070367
@<TRIPOS>BOND
     1     1     4 ar  
     2     1    16 ar  
     3     1    26 1   
     4     2    25 1   
     5     3     4 1   
     6     3    17 1   
     7     3    27 1   
     8     4     7 ar  
     9     5    25 1   
    10     6     9 1   
    11     6    17 1   
    12     6    21 1   
    13     7    10 ar  
    14     7    28 1   
    15     8    25 1   
    16     9    22 2   
    17    10    13 ar  
    18    10    29 1   
    19    11    23 1   
    20    12    21 2   
    21    12    22 1   
    22    13    16 ar  
    23    13    25 1   
    24    14    23 1   
    25    15    19 2   
    26    15    21 1   
    27    16    30 1   
    28    17    18 2   
    29    18    19 1   
    30    18    31 1   
    31    19    20 1   
    32    20    32 1   
    33    20    33 1   
    34    20    34 1   
    35    22    23 1   
    36    23    24 1   
    37    24    35 1   
    38    24    36 1   
    39    24    37 1   
@<TRIPOS>SUBSTRUCTURE
     1 D67         1 TEMP              0 ****  ****    0 ROOT
