@<TRIPOS>MOLECULE
D67
   37    39     1     0     0
SMALL
abcg2


@<TRIPOS>ATOM
      1 C1           1.1410    -0.8230    -0.5860 ca         1 D67      -0.137000
      2 F1           5.3500     0.8280     0.8810 f          1 D67      -0.112667
      3 N1          -0.2450    -2.1180     0.9600 nu         1 D67      -0.975000
      4 C2           0.9310    -1.4190     0.6550 ca         1 D67       0.327000
      5 F2           4.4580     1.6790    -0.8850 f          1 D67      -0.112667
      6 N2          -1.9460    -0.7270     0.1180 na         1 D67       0.055900
      7 C3           1.9350    -1.3750     1.6160 ca         1 D67      -0.137000
      8 F3           5.4090    -0.2440    -0.9820 f          1 D67      -0.112667
      9 N3          -1.3610     0.4470     0.3720 nc         1 D67      -0.545100
     10 C4           3.1340    -0.7410     1.3450 ca         1 D67      -0.032000
     11 F4          -1.8560     3.0870     1.3590 f          1 D67      -0.109000
     12 N4          -3.3940     0.7680    -0.5500 nd         1 D67      -0.368300
     13 C5           3.3360    -0.1260     0.1170 ca         1 D67      -0.211300
     14 F5          -0.8410     3.0580    -0.5610 f          1 D67      -0.109000
     15 N5          -4.0200    -1.5330    -0.7220 nc         1 D67      -0.660000
     16 C6           2.3320    -0.1730    -0.8440 ca         1 D67      -0.032000
     17 C7          -1.4630    -1.9700     0.3820 cc         1 D67       0.391000
     18 C8          -2.3170    -3.0060     0.0920 cd         1 D67      -0.305000
     19 C9          -3.5910    -2.7490    -0.4520 cd         1 D67       0.443300
     20 C10         -4.4970    -3.8970    -0.7510 c3         1 D67      -0.155400
     21 C11         -3.1960    -0.5340    -0.4300 cc         1 D67       0.437500
     22 C12         -2.2690     1.2960    -0.0560 cd         1 D67       0.463300
     23 C13         -2.0340     2.7770     0.0400 c3         1 D67       0.199700
     24 C14         -3.1230     3.6270    -0.5490 c3         1 D67      -0.137100
     25 C16          4.6350     0.5360    -0.2100 c3         1 D67       0.360300
     26 H1           0.3950    -0.8760    -1.3660 ha         1 D67       0.126500
     27 HN1         -0.1140    -3.0000     1.4290 hn         1 D67       0.508000
     28 H3           1.7800    -1.8340     2.5830 ha         1 D67       0.126500
     29 H4           3.8950    -0.7260     2.1120 ha         1 D67       0.134000
     30 H6           2.4690     0.2840    -1.8150 ha         1 D67       0.134000
     31 H8          -1.9940    -4.0230     0.2610 ha         1 D67       0.141000
     32 H10         -5.4070    -3.5580    -1.2390 hc         1 D67       0.063367
     33 H10A        -4.0060    -4.6230    -1.4000 hc         1 D67       0.063367
     34 H10B        -4.7680    -4.4190     0.1680 hc         1 D67       0.063367
     35 H14         -3.2330     3.4220    -1.6120 hc         1 D67       0.070367
     36 H14A        -4.0740     3.4240    -0.0640 hc         1 D67       0.070367
     37 H14B        -2.8800     4.6800    -0.4140 hc         1 D67       0.070367
@<TRIPOS>BOND
     1     1     4 ar  
     2     1    16 ar  
     3     1    26 1   
     4     2    25 1   
     5     3     4 1   
     6     3    17 1   
     7     3    27 1   
     8     4     7 ar  
     9     5    25 1   
    10     6     9 1   
    11     6    17 1   
    12     6    21 1   
    13     7    10 ar  
    14     7    28 1   
    15     8    25 1   
    16     9    22 2   
    17    10    13 ar  
    18    10    29 1   
    19    11    23 1   
    20    12    21 2   
    21    12    22 1   
    22    13    16 ar  
    23    13    25 1   
    24    14    23 1   
    25    15    19 2   
    26    15    21 1   
    27    16    30 1   
    28    17    18 2   
    29    18    19 1   
    30    18    31 1   
    31    19    20 1   
    32    20    32 1   
    33    20    33 1   
    34    20    34 1   
    35    22    23 1   
    36    23    24 1   
    37    24    35 1   
    38    24    36 1   
    39    24    37 1   
@<TRIPOS>SUBSTRUCTURE
     1 D67         1 TEMP              0 ****  ****    0 ROOT
