@<TRIPOS>MOLECULE
D68
   78    82     1     0     0
SMALL
abcg2


@<TRIPOS>ATOM
      1 O3          -3.6870    -4.0210     0.8010 os         1 D68      -0.376100
      2 C25         -3.5560     3.6310    -0.9060 c6         1 D68      -0.140700
      3 N2           2.8630     2.3840     0.1150 n          1 D68      -0.404800
      4 C8           2.2180     3.1370     1.1770 c6         1 D68       0.098500
      5 C7           3.5930     1.2880     0.3930 c          1 D68       0.604100
      6 C9           0.7070     2.9530     1.1150 c6         1 D68      -0.113400
      7 C10          0.1810     3.3510    -0.2620 c6         1 D68       0.135700
      8 C11         -2.8120     1.4770    -0.0300 ce         1 D68       0.388900
      9 C6           4.1380     0.5000    -0.7980 c3         1 D68       0.004000
     10 C5           4.5250    -1.7950    -0.0830 c          1 D68       0.587000
     11 C4           5.4650    -2.8200     0.4860 c6         1 D68      -0.157900
     12 N1           5.0410    -0.5290    -0.3340 n          1 D68      -0.367400
     13 C2           6.9300    -2.5970     0.1290 c6         1 D68      -0.038000
     14 C1           7.1630    -2.8010    -1.3690 c3         1 D68      -0.088100
     15 C14         -4.5480    -1.7840     0.7120 ca         1 D68      -0.088000
     16 C13         -4.3370    -0.4260     0.5170 ca         1 D68      -0.115000
     17 C12         -3.0780     0.0390     0.1560 ca         1 D68      -0.081900
     18 N3          -1.2590     3.1200    -0.3550 n          1 D68      -0.178800
     19 O2           3.8370     0.9150     1.5290 o          1 D68      -0.602100
     20 C15         -3.5090    -2.6790     0.5530 ca         1 D68       0.078100
     21 C24         -4.5890     4.7460    -0.8480 c6         1 D68      -0.029200
     22 C23         -4.9530     5.1110     0.5580 c2         1 D68      -0.210200
     23 C18          0.0400    -2.9190    -0.0240 c3         1 D68       0.397300
     24 C17         -2.2360    -2.2230     0.1970 ca         1 D68       0.141100
     25 C16         -4.1890    -4.7900    -0.1980 c3         1 D68       0.386300
     26 C22         -4.6710     4.3520     1.6120 c2         1 D68      -0.224200
     27 C21         -3.9660     3.0340     1.5240 c6         1 D68      -0.039200
     28 C20         -3.8860     2.5140     0.0790 c6         1 D68      -0.127000
     29 C19         -2.0290    -0.8720     0.0000 ca         1 D68      -0.133000
     30 N4          -1.5990     1.8130    -0.2330 n2         1 D68      -0.441300
     31 F1          -5.4570    -4.4250    -0.5050 f          1 D68      -0.133000
     32 F2          -3.4830    -4.6360    -1.3390 f          1 D68      -0.133000
     33 O4          -1.2870    -3.1970     0.0830 os         1 D68      -0.380100
     34 F3           0.3090    -2.2660    -1.1760 f          1 D68      -0.122000
     35 F4           0.4520    -2.1210     0.9820 f          1 D68      -0.122000
     36 C26         -2.1440     4.1170    -0.6670 c          1 D68       0.560000
     37 O5          -1.7930     5.2750    -0.7930 o          1 D68      -0.526000
     38 C27          0.9310     2.6160    -1.3720 c6         1 D68      -0.113400
     39 C28          2.4360     2.7970    -1.2110 c6         1 D68       0.098500
     40 C29          6.3260    -0.1290    -0.0000 c          1 D68       0.587000
     41 O6           6.6540     1.0290    -0.1360 o          1 D68      -0.522500
     42 C30          7.2640    -1.1690     0.5420 c6         1 D68      -0.157900
     43 H1          -3.5500     3.2050    -1.9180 hc         1 D68       0.079700
     44 H2           2.6060     2.8160     2.1400 h1         1 D68       0.058200
     45 H3           2.4750     4.1940     1.0550 h1         1 D68       0.058200
     46 H4           0.4640     1.9080     1.3210 hc         1 D68       0.063700
     47 H5           0.2320     3.5610     1.8880 hc         1 D68       0.063700
     48 H6           0.3280     4.4230    -0.3940 h1         1 D68       0.081700
     49 H7           3.3210     0.0290    -1.3430 h1         1 D68       0.087700
     50 H8           4.6630     1.1470    -1.4970 h1         1 D68       0.087700
     51 H9           5.3440    -2.7900     1.5750 hc         1 D68       0.081200
     52 H10          5.1150    -3.8030     0.1630 hc         1 D68       0.081200
     53 H11          7.5570    -4.6050     0.6550 hc         1 D68       0.041700
     54 H12          8.8580    -3.4160     0.6940 hc         1 D68       0.041700
     55 H13          7.6600    -3.4540     1.9900 hc         1 D68       0.041700
     56 H14          6.5610    -2.1330    -1.9870 hc         1 D68       0.041700
     57 H15          8.2100    -2.6260    -1.6220 hc         1 D68       0.041700
     58 H16          6.9180    -3.8240    -1.6600 hc         1 D68       0.041700
     59 H17         -5.5230    -2.1390     1.0160 ha         1 D68       0.136000
     60 H18         -5.1670     0.2520     0.6540 ha         1 D68       0.123000
     61 H19         -4.2290     5.6250    -1.3840 hc         1 D68       0.063700
     62 H20         -5.4860     4.4230    -1.3860 hc         1 D68       0.063700
     63 H21         -5.4820     6.0460     0.7030 ha         1 D68       0.179000
     64 H22          0.5850    -3.8600    -0.0020 h3         1 D68       0.112700
     65 H23         -4.1720    -5.8300     0.1190 h3         1 D68       0.104700
     66 H24         -4.9520     4.6860     2.6050 ha         1 D68       0.178000
     67 H25         -2.9650     3.1280     1.9620 hc         1 D68       0.058200
     68 H26         -4.4820     2.2960     2.1440 hc         1 D68       0.058200
     69 H27         -4.8580     2.1050    -0.2020 hc         1 D68       0.075700
     70 H28         -1.0670    -0.4780    -0.2850 ha         1 D68       0.157000
     71 H29          0.6900     1.5510    -1.3440 hc         1 D68       0.063700
     72 H30          0.6240     2.9990    -2.3480 hc         1 D68       0.063700
     73 H31          2.7050     3.8500    -1.3430 h1         1 D68       0.058200
     74 H32          2.9610     2.2450    -1.9850 h1         1 D68       0.058200
     75 H33          7.2240    -1.0840     1.6350 hc         1 D68       0.081200
     76 H34          8.2760    -0.8880     0.2470 hc         1 D68       0.081200
     77 O1           3.3620    -2.0380    -0.3080 o          1 D68      -0.522500
     78 C3           7.8010    -3.5730     0.9140 c3         1 D68      -0.088100
@<TRIPOS>BOND
     1     1    20 1   
     2     1    25 1   
     3     2    21 1   
     4     2    28 1   
     5     2    36 1   
     6     2    43 1   
     7     3     4 1   
     8     3     5 1   
     9     3    39 1   
    10     4     6 1   
    11     4    44 1   
    12     4    45 1   
    13     5     9 1   
    14     5    19 2   
    15     6     7 1   
    16     6    46 1   
    17     6    47 1   
    18     7    18 1   
    19     7    38 1   
    20     7    48 1   
    21     8    17 1   
    22     8    28 1   
    23     8    30 2   
    24     9    12 1   
    25     9    49 1   
    26     9    50 1   
    27    10    11 1   
    28    10    12 1   
    29    10    77 2   
    30    11    13 1   
    31    11    51 1   
    32    11    52 1   
    33    12    40 1   
    34    13    14 1   
    35    13    42 1   
    36    13    78 1   
    37    14    56 1   
    38    14    57 1   
    39    14    58 1   
    40    15    16 ar  
    41    15    20 ar  
    42    15    59 1   
    43    16    17 ar  
    44    16    60 1   
    45    17    29 ar  
    46    18    30 1   
    47    18    36 1   
    48    20    24 ar  
    49    21    22 1   
    50    21    61 1   
    51    21    62 1   
    52    22    26 2   
    53    22    63 1   
    54    23    33 1   
    55    23    34 1   
    56    23    35 1   
    57    23    64 1   
    58    24    29 ar  
    59    24    33 1   
    60    25    31 1   
    61    25    32 1   
    62    25    65 1   
    63    26    27 1   
    64    26    66 1   
    65    27    28 1   
    66    27    67 1   
    67    27    68 1   
    68    28    69 1   
    69    29    70 1   
    70    36    37 2   
    71    38    39 1   
    72    38    71 1   
    73    38    72 1   
    74    39    73 1   
    75    39    74 1   
    76    40    41 2   
    77    40    42 1   
    78    42    75 1   
    79    42    76 1   
    80    53    78 1   
    81    54    78 1   
    82    55    78 1   
@<TRIPOS>SUBSTRUCTURE
     1 D68         1 TEMP              0 ****  ****    0 ROOT
