@<TRIPOS>MOLECULE
D68
   78    82     1     0     0
SMALL
No Charge or Current Charge


@<TRIPOS>ATOM
      1 O3          -3.4040    -3.8660     0.2800 os         1 D68      -0.376100
      2 C25         -3.8520     4.1980    -0.7600 c6         1 D68      -0.140700
      3 N2           2.4260     1.8360     0.0760 n          1 D68      -0.404800
      4 C8           1.6400     2.5830     1.0970 c6         1 D68       0.098500
      5 C7           3.5780     1.1100     0.4630 c          1 D68       0.604100
      6 C9           0.1510     2.7260     0.7160 c6         1 D68      -0.113400
      7 C10         -0.0450     3.3240    -0.6980 c6         1 D68       0.135700
      8 C11         -3.1620     1.7400    -0.9300 ce         1 D68       0.388900
      9 C6           4.3130     0.2820    -0.6150 c3         1 D68       0.004000
     10 C5           4.8990    -1.9410     0.3450 c          1 D68       0.587000
     11 C4           5.9320    -2.9220     0.9110 c6         1 D68      -0.157900
     12 N1           5.3400    -0.6730    -0.0790 n          1 D68      -0.367400
     13 C2           7.3670    -2.7160     0.3670 c6         1 D68      -0.038000
     14 C1           7.4520    -3.1310    -1.1330 c3         1 D68      -0.088100
     15 C14         -4.5660    -1.7380    -0.1540 ca         1 D68      -0.088000
     16 C13         -4.4970    -0.3650    -0.4450 ca         1 D68      -0.115000
     17 C12         -3.2530     0.2750    -0.6010 ca         1 D68      -0.081900
     18 N3          -1.5000     3.3690    -1.0210 n          1 D68      -0.178800
     19 O2           3.9400     1.0840     1.6350 o          1 D68      -0.602100
     20 C15         -3.3860    -2.5060    -0.0160 ca         1 D68       0.078100
     21 C24         -4.7810     5.2360    -0.0690 c6         1 D68      -0.029200
     22 C23         -4.9360     4.9900     1.4220 c2         1 D68      -0.210200
     23 C18          0.3720    -2.1370    -0.0970 c3         1 D68       0.397300
     24 C17         -2.1280    -1.8780    -0.1840 ca         1 D68       0.141100
     25 C16         -4.6020    -4.6470     0.4820 c3         1 D68       0.386300
     26 C22         -4.6020     3.8350     2.0190 c2         1 D68      -0.224200
     27 C21         -4.0220     2.6370     1.2810 c6         1 D68      -0.039200
     28 C20         -4.1460     2.7350    -0.2710 c6         1 D68      -0.127000
     29 C19         -2.0770    -0.5010    -0.4890 ca         1 D68      -0.133000
     30 N4          -2.0790     2.1950    -1.4860 n2         1 D68      -0.441300
     31 F1          -5.3370    -4.1660     1.5120 f          1 D68      -0.133000
     32 F2          -5.3920    -4.6330    -0.6180 f          1 D68      -0.133000
     33 O4          -0.9800    -2.6510    -0.0360 os         1 D68      -0.380100
     34 F3           0.6460    -1.6040    -1.3110 f          1 D68      -0.122000
     35 F4           0.5730    -1.1640     0.8240 f          1 D68      -0.122000
     36 C26         -2.3270     4.4680    -0.6580 c          1 D68       0.560000
     37 O5          -1.8670     5.5430    -0.2900 o          1 D68      -0.526000
     38 C27          0.7770     2.4840    -1.7160 c6         1 D68      -0.113400
     39 C28          2.2600     2.3620    -1.3100 c6         1 D68       0.098500
     40 C29          6.6810    -0.2500    -0.0190 c          1 D68       0.587000
     41 O6           7.0310     0.8480    -0.4310 o          1 D68      -0.522500
     42 C30          7.7280    -1.2200     0.5430 c6         1 D68      -0.157900
     43 H1          -4.0550     4.1840    -1.8390 hc         1 D68       0.079700
     44 H2           1.7010     2.0750     2.0700 h1         1 D68       0.058200
     45 H3           2.0830     3.5820     1.2210 h1         1 D68       0.058200
     46 H4          -0.3240     1.7380     0.7740 hc         1 D68       0.063700
     47 H5          -0.3570     3.3540     1.4600 hc         1 D68       0.063700
     48 H6           0.3530     4.3500    -0.7040 h1         1 D68       0.081700
     49 H7           3.5510    -0.2690    -1.1810 h1         1 D68       0.087700
     50 H8           4.7730     0.9870    -1.3170 h1         1 D68       0.087700
     51 H9           5.9560    -2.7180     1.9900 hc         1 D68       0.081200
     52 H10          5.5660    -3.9520     0.7980 hc         1 D68       0.081200
     53 H11          8.1280    -4.6710     1.0550 hc         1 D68       0.041700
     54 H12          9.3990    -3.4680     0.7950 hc         1 D68       0.041700
     55 H13          8.3670    -3.3690     2.2260 hc         1 D68       0.041700
     56 H14          6.7690    -2.5460    -1.7620 hc         1 D68       0.041700
     57 H15          8.4640    -2.9860    -1.5310 hc         1 D68       0.041700
     58 H16          7.1940    -4.1880    -1.2700 hc         1 D68       0.041700
     59 H17         -5.5490    -2.1840    -0.0390 ha         1 D68       0.136000
     60 H18         -5.4230     0.1950    -0.5520 ha         1 D68       0.123000
     61 H19         -4.4120     6.2560    -0.2480 hc         1 D68       0.063700
     62 H20         -5.7770     5.1940    -0.5310 hc         1 D68       0.063700
     63 H21         -5.3470     5.8170     2.0060 ha         1 D68       0.179000
     64 H22          1.0900    -2.9420     0.0930 h3         1 D68       0.112700
     65 H23         -4.3390    -5.6860     0.7040 h3         1 D68       0.104700
     66 H24         -4.7370     3.7130     3.0970 ha         1 D68       0.178000
     67 H25         -2.9650     2.5370     1.5680 hc         1 D68       0.058200
     68 H26         -4.5160     1.7210     1.6320 hc         1 D68       0.058200
     69 H27         -5.1730     2.4800    -0.5630 hc         1 D68       0.075700
     70 H28         -1.1210    -0.0120    -0.6260 ha         1 D68       0.157000
     71 H29          0.3720     1.4680    -1.8020 hc         1 D68       0.063700
     72 H30          0.7020     2.9340    -2.7150 hc         1 D68       0.063700
     73 H31          2.7360     3.3510    -1.3700 h1         1 D68       0.058200
     74 H32          2.7600     1.7170    -2.0440 h1         1 D68       0.058200
     75 H33          7.7580    -1.0130     1.6210 hc         1 D68       0.081200
     76 H34          8.7210    -0.9630     0.1500 hc         1 D68       0.081200
     77 O1           3.7290    -2.2840     0.2390 o          1 D68      -0.522500
     78 C3           8.3720    -3.6070     1.1550 c3         1 D68      -0.088100
@<TRIPOS>BOND
     1     1    20 1   
     2     1    25 1   
     3     2    21 1   
     4     2    28 1   
     5     2    36 1   
     6     2    43 1   
     7     3     4 1   
     8     3     5 1   
     9     3    39 1   
    10     4     6 1   
    11     4    44 1   
    12     4    45 1   
    13     5     9 1   
    14     5    19 2   
    15     6     7 1   
    16     6    46 1   
    17     6    47 1   
    18     7    18 1   
    19     7    38 1   
    20     7    48 1   
    21     8    17 1   
    22     8    28 1   
    23     8    30 2   
    24     9    12 1   
    25     9    49 1   
    26     9    50 1   
    27    10    11 1   
    28    10    12 1   
    29    10    77 2   
    30    11    13 1   
    31    11    51 1   
    32    11    52 1   
    33    12    40 1   
    34    13    14 1   
    35    13    42 1   
    36    13    78 1   
    37    14    56 1   
    38    14    57 1   
    39    14    58 1   
    40    15    16 ar  
    41    15    20 ar  
    42    15    59 1   
    43    16    17 ar  
    44    16    60 1   
    45    17    29 ar  
    46    18    30 1   
    47    18    36 1   
    48    20    24 ar  
    49    21    22 1   
    50    21    61 1   
    51    21    62 1   
    52    22    26 2   
    53    22    63 1   
    54    23    33 1   
    55    23    34 1   
    56    23    35 1   
    57    23    64 1   
    58    24    29 ar  
    59    24    33 1   
    60    25    31 1   
    61    25    32 1   
    62    25    65 1   
    63    26    27 1   
    64    26    66 1   
    65    27    28 1   
    66    27    67 1   
    67    27    68 1   
    68    28    69 1   
    69    29    70 1   
    70    36    37 2   
    71    38    39 1   
    72    38    71 1   
    73    38    72 1   
    74    39    73 1   
    75    39    74 1   
    76    40    41 2   
    77    40    42 1   
    78    42    75 1   
    79    42    76 1   
    80    53    78 1   
    81    54    78 1   
    82    55    78 1   
@<TRIPOS>SUBSTRUCTURE
     1 D68         1 TEMP              0 ****  ****    0 ROOT
