@<TRIPOS>MOLECULE
D69
  120   127     1     0     0
SMALL
No Charge or Current Charge


@<TRIPOS>ATOM
      1 P            3.6070    -0.5110     4.1020 p5         1 D69       1.456800
      2 N1          -3.4160     2.2480     0.7360 ns         1 D69      -0.516900
      3 C2          -3.6600     3.5810     0.8350 c          1 D69       0.626000
      4 O2          -3.2710     4.2490     1.7700 o          1 D69      -0.567000
      5 N3          -4.3810     4.1050    -0.1940 ns         1 D69      -0.490500
      6 C4          -5.0550     3.4450    -1.1930 c          1 D69       0.587000
      7 O4          -5.7210     4.0850    -1.9950 o          1 D69      -0.516000
      8 N5          -4.7930     1.2930    -2.6190 nu         1 D69      -0.902200
      9 C6          -4.5430    -0.7210    -3.9400 ca         1 D69      -0.132000
     10 C7          -4.0940    -2.0430    -4.1110 ca         1 D69      -0.078300
     11 C8          -3.3720    -2.6730    -3.0720 ca         1 D69      -0.074300
     12 C9          -3.1140    -1.9750    -1.8740 ca         1 D69      -0.119000
     13 PA           5.0810     0.0780     2.0080 p5         1 D69       1.459800
     14 C1          -2.7930    -0.5730     0.7960 c3         1 D69       0.149800
     15 C10         -3.5770     1.5310    -0.5050 c6         1 D69       0.391900
     16 N10         -3.3170     0.0660    -0.4500 nh         1 D69      -0.779400
     17 N1A         12.2580     3.1030    -1.0350 nb         1 D69      -0.323000
     18 O1A          5.3080     1.4420     2.5700 o          1 D69      -0.849500
     19 C1B          8.0770    -0.0470    -1.5830 c5         1 D69       0.313300
     20 O1P          4.8270    -0.8390     4.8950 o          1 D69      -0.851000
     21 C11         -1.2560    -0.4140     1.0490 c3         1 D69       0.107300
     22 O6          -0.5030    -1.0360    -0.0080 oh         1 D69      -0.695000
     23 C2A         11.4910     2.8250    -2.1160 ca         1 D69       0.156900
     24 O2A          6.2910    -0.7900     2.0810 o          1 D69      -0.849500
     25 C2B          8.1410    -1.6090    -1.7980 c5         1 D69       0.090300
     26 O2B          7.9580    -2.0050    -3.1650 oh         1 D69      -0.708000
     27 O2P          2.9590     0.7660     4.5240 o          1 D69      -0.851000
     28 C3          -0.8040    -1.0220     2.4220 c3         1 D69       0.096300
     29 O3          -1.5350    -0.3910     3.4940 oh         1 D69      -0.656000
     30 N3A         10.4190     1.9980    -2.1570 nb         1 D69      -0.208000
     31 C3B          6.9070    -2.0970    -0.9820 c5         1 D69       0.082300
     32 O3B          6.4430    -3.3700    -1.4710 oh         1 D69      -0.695000
     33 O3P          3.7830    -0.6430     2.5400 os         1 D69      -0.686800
     34 C12          0.7370    -0.9230     2.7020 c3         1 D69       0.138300
     35 O7           1.4900    -1.5420     1.6340 oh         1 D69      -0.697000
     36 C4A         10.0930     1.3970    -0.9940 ca         1 D69       0.103500
     37 C4B          5.9290    -0.9170    -1.2590 c5         1 D69       0.155300
     38 O4B          6.7670     0.2410    -1.0390 os         1 D69      -0.403000
     39 C4X         -4.9260     1.8760    -1.2390 c6         1 D69       0.127200
     40 C5           1.1270    -1.5770     4.0720 c3         1 D69       0.202600
     41 O5           2.5550    -1.7260     4.2410 os         1 D69      -0.567400
     42 C5A         10.8050     1.6110     0.1600 ca         1 D69      -0.089600
     43 C5B          4.6080    -0.8960    -0.4170 c3         1 D69       0.228600
     44 O5B          4.5580     0.2190     0.4900 os         1 D69      -0.559400
     45 C5X         -4.2850    -0.0200    -2.7530 ca         1 D69       0.226000
     46 C6A         11.9070     2.4930     0.1070 ca         1 D69       0.439900
     47 N6A         12.6800     2.7700     1.1910 nv         1 D69      -1.076900
     48 N7A         10.3030     0.8860     1.2360 nc         1 D69      -0.581100
     49 C8A          9.2580     0.2410     0.6770 cd         1 D69       0.449700
     50 C9A         -3.5610    -0.6510    -1.6800 ca         1 D69       0.268000
     51 N9A          9.0880     0.5140    -0.6930 na         1 D69      -0.297300
     52 CAB         -9.5810     0.6220    -3.2690 ca         1 D69      -0.117000
     53 CAC        -12.4890    -0.9700     2.2250 ca         1 D69      -0.112000
     54 CAD         -9.3110     1.9030    -2.7630 ca         1 D69      -0.117000
     55 CAE         -8.7660    -0.4590    -2.9000 ca         1 D69      -0.117000
     56 CAF        -11.9380    -0.2340     3.2880 ca         1 D69      -0.113000
     57 CAG        -11.9670    -0.8250     0.9280 ca         1 D69      -0.113000
     58 CAH         -8.2270     2.1050    -1.8920 ca         1 D69      -0.097500
     59 CAI         -7.6840    -0.2590    -2.0270 ca         1 D69      -0.097500
     60 CAJ        -10.8660     0.6460     3.0550 ca         1 D69      -0.101000
     61 CAK        -10.8960     0.0540     0.6950 ca         1 D69      -0.101000
     62 CAL         -6.6890     1.8340     0.8020 c3         1 D69      -0.108700
     63 CAM         -6.2100     1.2150    -0.5500 c3         1 D69      -0.030400
     64 CAO         -7.8160     1.0460     1.4500 c2         1 D69       0.416300
     65 CAP         -7.4000     1.0250    -1.5120 ca         1 D69      -0.089300
     66 CAQ        -10.3410     0.7940     1.7570 ca         1 D69      -0.088300
     67 HN1         -2.8860     1.8240     1.4810 hn         1 D69       0.349500
     68 HN3         -4.5150     5.1030    -0.1630 hn         1 D69       0.337500
     69 HN5         -5.4690     1.5860    -3.3270 hn         1 D69       0.476000
     70 H6          -5.1030    -0.2340    -4.7330 ha         1 D69       0.109000
     71 H9          -2.5500    -2.4750    -1.0960 ha         1 D69       0.117000
     72 H1          -3.3380    -0.1660     1.6580 h1         1 D69       0.063700
     73 H1'A        -3.0400    -1.6420     0.8080 h1         1 D69       0.063700
     74 H10         -2.7840     1.9320    -1.1580 h2         1 D69       0.078700
     75 H1B          8.1990     0.4610    -2.5480 h2         1 D69       0.109700
     76 H2          -1.0240     0.6600     1.0700 h1         1 D69       0.061700
     77 HO2          0.3510    -1.3140     0.4310 ho         1 D69       0.516000
     78 H2A         11.7640     3.3150    -3.0490 h5         1 D69       0.030100
     79 H2B          9.0730    -2.0330    -1.4000 h1         1 D69       0.054700
     80 HO2B         7.3570    -2.7900    -3.0790 ho         1 D69       0.519000
     81 H3          -1.0620    -2.0900     2.4010 h1         1 D69       0.060700
     82 HO3         -1.1810     0.5170     3.6180 ho         1 D69       0.444000
     83 H3B          7.1570    -2.1610     0.0860 h1         1 D69       0.051700
     84 HO3B         6.0710    -3.8670    -0.7030 ho         1 D69       0.496000
     85 H4           0.9920     0.1450     2.7540 h1         1 D69       0.086700
     86 HO4          2.4450    -1.3740     1.8740 ho         1 D69       0.496000
     87 H4B          5.6310    -0.9220    -2.3170 h1         1 D69       0.093700
     88 H5           0.7160    -0.9730     4.8910 h1         1 D69       0.018700
     89 H5'A         0.6520    -2.5650     4.1340 h1         1 D69       0.018700
     90 H5B          3.7610    -0.8370    -1.1120 h1         1 D69       0.018700
     91 H5BA         4.5060    -1.8470     0.1240 h1         1 D69       0.018700
     92 HN6A        12.5720     2.1570     1.9960 hn         1 D69       0.499000
     93 HN6B        13.6050     3.1610     1.0340 hn         1 D69       0.499000
     94 H8A          8.6010    -0.4490     1.1930 h5         1 D69       0.110800
     95 H8M         -2.1840    -4.1950    -4.0770 hc         1 D69       0.039367
     96 H8MA        -2.3160    -4.4400    -2.3330 hc         1 D69       0.039367
     97 H8MB        -3.6950    -4.8040    -3.3750 hc         1 D69       0.039367
     98 HNAA        -8.5260    -0.4580     2.3280 hn         1 D69       0.379400
     99 HAD         -9.9430     2.7430    -3.0460 ha         1 D69       0.109500
    100 HAE         -8.9720    -1.4530    -3.2900 ha         1 D69       0.109500
    101 HAG        -12.3910    -1.3940     0.1040 ha         1 D69       0.110000
    102 HAH         -8.0440     3.1040    -1.5060 ha         1 D69       0.120500
    103 HAI         -7.0610    -1.1080    -1.7530 ha         1 D69       0.120500
    104 HAJ        -10.4450     1.2100     3.8850 ha         1 D69       0.119500
    105 HAK        -10.4940     0.1590    -0.3110 ha         1 D69       0.119500
    106 HAL         -5.8550     1.8560     1.5100 hc         1 D69       0.064700
    107 HALA        -6.9900     2.8780     0.6580 hc         1 D69       0.064700
    108 HAM         -5.9020     0.2010    -0.2690 hc         1 D69       0.100700
    109 C7M         -4.3980    -2.7700    -5.4170 c3         1 D69      -0.037800
    110 NAA         -7.6280    -0.1200     1.9550 n2         1 D69      -0.741100
    111 CAN         -9.1700     1.7370     1.4940 c3         1 D69      -0.133400
    112 HAC        -13.3180    -1.6500     2.4060 ha         1 D69       0.108000
    113 HAN         -9.1420     2.5210     2.2600 hc         1 D69       0.065200
    114 HANA        -9.3510     2.2650     0.5520 hc         1 D69       0.065200
    115 C8M         -2.8640    -4.1050    -3.2220 c3         1 D69      -0.041800
    116 HAB        -10.4200     0.4670    -3.9440 ha         1 D69       0.106000
    117 H7M         -3.4750    -3.0600    -5.9330 hc         1 D69       0.036367
    118 H7MA        -4.9840    -3.6790    -5.2360 hc         1 D69       0.036367
    119 H7MB        -4.9740    -2.1440    -6.1090 hc         1 D69       0.036367
    120 HAF        -12.3410    -0.3460     4.2920 ha         1 D69       0.110000
@<TRIPOS>BOND
     1     1    20 1   
     2     1    27 1   
     3     1    33 1   
     4     1    41 1   
     5     2     3 1   
     6     2    15 1   
     7     2    67 1   
     8     3     4 2   
     9     3     5 1   
    10     5     6 1   
    11     5    68 1   
    12     6     7 2   
    13     6    39 1   
    14     8    39 1   
    15     8    45 1   
    16     8    69 1   
    17     9    10 ar  
    18     9    45 ar  
    19     9    70 1   
    20    10    11 ar  
    21    10   109 1   
    22    11    12 ar  
    23    11   115 1   
    24    12    50 ar  
    25    12    71 1   
    26    13    18 1   
    27    13    24 1   
    28    13    33 1   
    29    13    44 1   
    30    14    16 1   
    31    14    21 1   
    32    14    72 1   
    33    14    73 1   
    34    15    16 1   
    35    15    39 1   
    36    15    74 1   
    37    16    50 1   
    38    17    23 ar  
    39    17    46 ar  
    40    19    25 1   
    41    19    38 1   
    42    19    51 1   
    43    19    75 1   
    44    21    22 1   
    45    21    28 1   
    46    21    76 1   
    47    22    77 1   
    48    23    30 ar  
    49    23    78 1   
    50    25    26 1   
    51    25    31 1   
    52    25    79 1   
    53    26    80 1   
    54    28    29 1   
    55    28    34 1   
    56    28    81 1   
    57    29    82 1   
    58    30    36 ar  
    59    31    32 1   
    60    31    37 1   
    61    31    83 1   
    62    32    84 1   
    63    34    35 1   
    64    34    40 1   
    65    34    85 1   
    66    35    86 1   
    67    36    42 ar  
    68    36    51 1   
    69    37    38 1   
    70    37    43 1   
    71    37    87 1   
    72    39    63 1   
    73    40    41 1   
    74    40    88 1   
    75    40    89 1   
    76    42    46 ar  
    77    42    48 1   
    78    43    44 1   
    79    43    90 1   
    80    43    91 1   
    81    45    50 ar  
    82    46    47 1   
    83    47    92 1   
    84    47    93 1   
    85    48    49 2   
    86    49    51 1   
    87    49    94 1   
    88    52    54 ar  
    89    52    55 ar  
    90    52   116 1   
    91    53    56 ar  
    92    53    57 ar  
    93    53   112 1   
    94    54    58 ar  
    95    54    99 1   
    96    55    59 ar  
    97    55   100 1   
    98    56    60 ar  
    99    56   120 1   
   100    57    61 ar  
   101    57   101 1   
   102    58    65 ar  
   103    58   102 1   
   104    59    65 ar  
   105    59   103 1   
   106    60    66 ar  
   107    60   104 1   
   108    61    66 ar  
   109    61   105 1   
   110    62    63 1   
   111    62    64 1   
   112    62   106 1   
   113    62   107 1   
   114    63    65 1   
   115    63   108 1   
   116    64   110 2   
   117    64   111 1   
   118    66   111 1   
   119    95   115 1   
   120    96   115 1   
   121    97   115 1   
   122    98   110 1   
   123   109   117 1   
   124   109   118 1   
   125   109   119 1   
   126   111   113 1   
   127   111   114 1   
@<TRIPOS>SUBSTRUCTURE
     1 D69         1 TEMP              0 ****  ****    0 ROOT
