@<TRIPOS>MOLECULE
D69
  120   127     1     0     0
SMALL
abcg2


@<TRIPOS>ATOM
      1 P            3.9420    -1.5270     2.9960 p5         1 D69       1.456800
      2 N1          -4.6660     1.7480     1.4270 ns         1 D69      -0.516900
      3 C2          -4.8470     3.0820     1.3950 c          1 D69       0.626000
      4 O2          -4.7280     3.8220     2.3500 o          1 D69      -0.567000
      5 N3          -5.2030     3.5850     0.1450 ns         1 D69      -0.490500
      6 C4          -5.5370     2.8660    -0.9700 c          1 D69       0.587000
      7 O4          -5.7220     3.3970    -2.0400 o          1 D69      -0.516000
      8 N5          -5.3490     0.6990    -1.9760 nu         1 D69      -0.902200
      9 C6          -5.5210    -1.5100    -2.9420 ca         1 D69      -0.132000
     10 C7          -5.4030    -2.8910    -2.8800 ca         1 D69      -0.078300
     11 C8          -5.0160    -3.4690    -1.6680 ca         1 D69      -0.074300
     12 C9          -4.7420    -2.6440    -0.5820 ca         1 D69      -0.119000
     13 PA           6.3670    -2.3430     1.6310 p5         1 D69       1.459800
     14 C1          -3.5200    -0.8760     1.4060 c3         1 D69       0.149800
     15 C10         -4.5450     0.9790     0.2080 c6         1 D69       0.391900
     16 N10         -4.5550    -0.4360     0.4780 nh         1 D69      -0.779400
     17 N1A         14.0870     3.8100    -0.8350 nb         1 D69      -0.323000
     18 O1A          7.1470    -2.4180     2.9060 o          1 D69      -0.849500
     19 C1B          9.8310     1.0960    -1.5360 c5         1 D69       0.313300
     20 O1P          3.9020    -2.9380     3.4920 o          1 D69      -0.851000
     21 C11         -2.0870    -0.5300     0.9820 c3         1 D69       0.107300
     22 O6          -1.8370    -0.9110    -0.3440 oh         1 D69      -0.695000
     23 C2A         13.2980     3.6440    -1.8930 ca         1 D69       0.156900
     24 O2A          6.0060    -3.5880     0.8860 o          1 D69      -0.849500
     25 C2B         10.3530     0.0600    -2.5290 c5         1 D69       0.090300
     26 O2B          9.6050     0.1860    -3.7070 oh         1 D69      -0.708000
     27 O2P          4.0800    -0.3890     3.9590 o          1 D69      -0.851000
     28 C3          -1.0870    -1.0950     2.0110 c3         1 D69       0.096300
     29 O3          -1.2180    -0.3840     3.2220 oh         1 D69      -0.656000
     30 N3A         12.2000     2.9150    -1.9940 nb         1 D69      -0.208000
     31 C3B         10.0100    -1.2420    -1.7950 c5         1 D69       0.082300
     32 O3B          9.8650    -2.3470    -2.6400 oh         1 D69      -0.695000
     33 O3P          5.0600    -1.3680     1.8050 os         1 D69      -0.686800
     34 C12          0.3550    -1.1410     1.4660 c3         1 D69       0.138300
     35 O7           0.5070    -2.2400     0.5960 oh         1 D69      -0.697000
     36 C4A         11.9110     2.3050    -0.8460 ca         1 D69       0.103500
     37 C4B          8.6710    -0.8870    -1.1550 c5         1 D69       0.155300
     38 O4B          8.7660     0.5060    -0.8550 os         1 D69      -0.403000
     39 C4X         -5.6790     1.3690    -0.7490 c6         1 D69       0.127200
     40 C5           1.3850    -1.1750     2.5870 c3         1 D69       0.202600
     41 O5           2.6670    -1.2460     1.9980 os         1 D69      -0.567400
     42 C5A         12.6290     2.3830     0.3370 ca         1 D69      -0.089600
     43 C5B          8.3730    -1.6800     0.0930 c3         1 D69       0.228600
     44 O5B          7.1130    -1.2960     0.5940 os         1 D69      -0.559400
     45 C5X         -5.2330    -0.6860    -1.8590 ca         1 D69       0.226000
     46 C6A         13.7830     3.1890     0.3110 ca         1 D69       0.439900
     47 N6A         14.5690     3.3570     1.3740 nv         1 D69      -1.076900
     48 N7A         12.0370     1.6280     1.3140 nc         1 D69      -0.581100
     49 C8A         10.9930     1.1100     0.7350 cd         1 D69       0.449700
     50 C9A         -4.8180    -1.2540    -0.6460 ca         1 D69       0.268000
     51 N9A         10.8610     1.4780    -0.5750 na         1 D69      -0.297300
     52 CAB        -10.0480     1.5970    -3.3920 ca         1 D69      -0.117000
     53 CAC        -14.0190     0.1360     1.0600 ca         1 D69      -0.112000
     54 CAD         -9.5890     2.6760    -2.6480 ca         1 D69      -0.117000
     55 CAE         -9.5570     0.3270    -3.1230 ca         1 D69      -0.117000
     56 CAF        -13.5360     0.5020     2.3080 ca         1 D69      -0.113000
     57 CAG        -13.2460     0.3730    -0.0720 ca         1 D69      -0.113000
     58 CAH         -8.6430     2.4860    -1.6500 ca         1 D69      -0.097500
     59 CAI         -8.6130     0.1430    -2.1230 ca         1 D69      -0.097500
     60 CAJ        -12.2880     1.1020     2.4250 ca         1 D69      -0.101000
     61 CAK        -12.0010     0.9710     0.0480 ca         1 D69      -0.101000
     62 CAL         -7.6400     1.5350     1.0650 c3         1 D69      -0.108700
     63 CAM         -7.1260     0.9730    -0.2700 c3         1 D69      -0.030400
     64 CAO         -9.0120     0.9630     1.3520 c2         1 D69       0.416300
     65 CAP         -8.1350     1.2170    -1.3750 ca         1 D69      -0.089300
     66 CAQ        -11.5090     1.3470     1.2980 ca         1 D69      -0.088300
     67 HN1         -4.3730     1.3650     2.3120 hn         1 D69       0.349500
     68 HN3         -5.1990     4.5940     0.0600 hn         1 D69       0.337500
     69 HN5         -5.8890     1.0040    -2.7740 hn         1 D69       0.476000
     70 H6          -5.8500    -1.0450    -3.8650 ha         1 D69       0.109000
     71 H9          -4.4590    -3.1260     0.3440 ha         1 D69       0.117000
     72 H1          -3.7150    -0.4710     2.4010 h1         1 D69       0.063700
     73 H1'A        -3.6080    -1.9520     1.5420 h1         1 D69       0.063700
     74 H10         -3.6120     1.2760    -0.2990 h2         1 D69       0.078700
     75 H1B          9.5060     2.0100    -2.0400 h2         1 D69       0.109700
     76 H2          -1.9540     0.5590     0.9880 h1         1 D69       0.061700
     77 HO2         -1.8030    -1.8720    -0.4010 ho         1 D69       0.516000
     78 H2A         13.6000     4.1790    -2.7880 h5         1 D69       0.030100
     79 H2B         11.4280     0.1720    -2.7140 h1         1 D69       0.054700
     80 HO2B         9.5410    -0.6880    -4.1120 ho         1 D69       0.519000
     81 H3          -1.3670    -2.1270     2.2590 h1         1 D69       0.060700
     82 HO3         -0.9970     0.5420     3.0680 ho         1 D69       0.444000
     83 H3B         10.7630    -1.4250    -1.0170 h1         1 D69       0.051700
     84 HO3B        10.7330    -2.7300    -2.8030 ho         1 D69       0.496000
     85 H4           0.5440    -0.2500     0.8550 h1         1 D69       0.086700
     86 HO4          0.4520    -3.0500     1.1160 ho         1 D69       0.496000
     87 H4B          7.8640    -1.0450    -1.8810 h1         1 D69       0.093700
     88 H5           1.2970    -0.2810     3.2100 h1         1 D69       0.018700
     89 H5'A         1.2000    -2.0430     3.2370 h1         1 D69       0.018700
     90 H5B          8.3980    -2.7420    -0.1790 h1         1 D69       0.018700
     91 H5BA         9.1610    -1.5200     0.8390 h1         1 D69       0.018700
     92 HN6A        14.3860     2.8760     2.2370 hn         1 D69       0.499000
     93 HN6B        15.4040     3.9130     1.3060 hn         1 D69       0.499000
     94 H8A         10.2810     0.4630     1.2220 h5         1 D69       0.110800
     95 H8M         -4.1380    -5.3670    -2.2050 hc         1 D69       0.039367
     96 H8MA        -4.6100    -5.2410    -0.5160 hc         1 D69       0.039367
     97 H8MB        -5.8300    -5.4670    -1.7660 hc         1 D69       0.039367
     98 HNAA       -10.0850    -0.5510     1.7010 hn         1 D69       0.379400
     99 HAD         -9.9700     3.6710    -2.8390 ha         1 D69       0.109500
    100 HAE         -9.9150    -0.5240    -3.6880 ha         1 D69       0.109500
    101 HAG        -13.6170     0.0930    -1.0500 ha         1 D69       0.110000
    102 HAH         -8.3180     3.3460    -1.0770 ha         1 D69       0.120500
    103 HAI         -8.2480    -0.8550    -1.9120 ha         1 D69       0.120500
    104 HAJ        -11.9180     1.3860     3.4030 ha         1 D69       0.119500
    105 HAK        -11.4000     1.1480    -0.8380 ha         1 D69       0.119500
    106 HAL         -6.9770     1.2370     1.8750 hc         1 D69       0.064700
    107 HALA        -7.6880     2.6260     1.0630 hc         1 D69       0.064700
    108 HAM         -7.0810    -0.1090    -0.1230 hc         1 D69       0.100700
    109 C7M         -5.6960    -3.7350    -4.0860 c3         1 D69      -0.037800
    110 NAA         -9.1160    -0.2840     1.5360 n2         1 D69      -0.741100
    111 CAN        -10.1470     1.9620     1.4030 c3         1 D69      -0.133400
    112 HAC        -14.9910    -0.3310     0.9670 ha         1 D69       0.108000
    113 HAN        -10.0410     2.5290     2.3360 hc         1 D69       0.065200
    114 HANA        -9.9970     2.6890     0.6030 hc         1 D69       0.065200
    115 C8M         -4.8930    -4.9590    -1.5300 c3         1 D69      -0.041800
    116 HAB        -10.7880     1.7440    -4.1680 ha         1 D69       0.106000
    117 H7M         -4.8060    -4.2650    -4.4320 hc         1 D69       0.036367
    118 H7MA        -6.4530    -4.4940    -3.8790 hc         1 D69       0.036367
    119 H7MB        -6.0580    -3.1270    -4.9150 hc         1 D69       0.036367
    120 HAF        -14.1310     0.3220     3.1950 ha         1 D69       0.110000
@<TRIPOS>BOND
     1     1    20 1   
     2     1    27 1   
     3     1    33 1   
     4     1    41 1   
     5     2     3 1   
     6     2    15 1   
     7     2    67 1   
     8     3     4 2   
     9     3     5 1   
    10     5     6 1   
    11     5    68 1   
    12     6     7 2   
    13     6    39 1   
    14     8    39 1   
    15     8    45 1   
    16     8    69 1   
    17     9    10 ar  
    18     9    45 ar  
    19     9    70 1   
    20    10    11 ar  
    21    10   109 1   
    22    11    12 ar  
    23    11   115 1   
    24    12    50 ar  
    25    12    71 1   
    26    13    18 1   
    27    13    24 1   
    28    13    33 1   
    29    13    44 1   
    30    14    16 1   
    31    14    21 1   
    32    14    72 1   
    33    14    73 1   
    34    15    16 1   
    35    15    39 1   
    36    15    74 1   
    37    16    50 1   
    38    17    23 ar  
    39    17    46 ar  
    40    19    25 1   
    41    19    38 1   
    42    19    51 1   
    43    19    75 1   
    44    21    22 1   
    45    21    28 1   
    46    21    76 1   
    47    22    77 1   
    48    23    30 ar  
    49    23    78 1   
    50    25    26 1   
    51    25    31 1   
    52    25    79 1   
    53    26    80 1   
    54    28    29 1   
    55    28    34 1   
    56    28    81 1   
    57    29    82 1   
    58    30    36 ar  
    59    31    32 1   
    60    31    37 1   
    61    31    83 1   
    62    32    84 1   
    63    34    35 1   
    64    34    40 1   
    65    34    85 1   
    66    35    86 1   
    67    36    42 ar  
    68    36    51 1   
    69    37    38 1   
    70    37    43 1   
    71    37    87 1   
    72    39    63 1   
    73    40    41 1   
    74    40    88 1   
    75    40    89 1   
    76    42    46 ar  
    77    42    48 1   
    78    43    44 1   
    79    43    90 1   
    80    43    91 1   
    81    45    50 ar  
    82    46    47 1   
    83    47    92 1   
    84    47    93 1   
    85    48    49 2   
    86    49    51 1   
    87    49    94 1   
    88    52    54 ar  
    89    52    55 ar  
    90    52   116 1   
    91    53    56 ar  
    92    53    57 ar  
    93    53   112 1   
    94    54    58 ar  
    95    54    99 1   
    96    55    59 ar  
    97    55   100 1   
    98    56    60 ar  
    99    56   120 1   
   100    57    61 ar  
   101    57   101 1   
   102    58    65 ar  
   103    58   102 1   
   104    59    65 ar  
   105    59   103 1   
   106    60    66 ar  
   107    60   104 1   
   108    61    66 ar  
   109    61   105 1   
   110    62    63 1   
   111    62    64 1   
   112    62   106 1   
   113    62   107 1   
   114    63    65 1   
   115    63   108 1   
   116    64   110 2   
   117    64   111 1   
   118    66   111 1   
   119    95   115 1   
   120    96   115 1   
   121    97   115 1   
   122    98   110 1   
   123   109   117 1   
   124   109   118 1   
   125   109   119 1   
   126   111   113 1   
   127   111   114 1   
@<TRIPOS>SUBSTRUCTURE
     1 D69         1 TEMP              0 ****  ****    0 ROOT
