@<TRIPOS>MOLECULE
D6A
   33    35     1     0     0
SMALL
No Charge or Current Charge


@<TRIPOS>ATOM
      1 C4          -3.9570     1.8300    10.0300 ca         1 D6A      -0.077000
      2 C5          -2.7440     1.3120    10.5440 ca         1 D6A      -0.109500
      3 C6          -1.4510     1.9600    10.2510 cc         1 D6A       0.612500
      4 N1          -0.2950     1.5110    10.7090 nd         1 D6A      -0.377300
      5 C7          -0.1040     3.3480     9.4640 cd         1 D6A       0.471300
      6 C8           0.5400     4.5010     8.6620 c5         1 D6A       0.161200
      7 N2           2.0370     4.5730     8.6150 n7         1 D6A      -0.890400
      8 C9           0.2050     5.8640     9.3260 c5         1 D6A      -0.075400
      9 C10          1.2330     5.9430    10.4930 c5         1 D6A       0.143300
     10 C11          2.4490     5.1080     9.9440 c5         1 D6A       0.131800
     11 F2          -7.4840    -0.4600    10.4360 f          1 D6A      -0.112333
     12 F           -6.4550    -1.9590    11.6170 f          1 D6A      -0.112333
     13 F1          -7.1290    -0.1160    12.5530 f          1 D6A      -0.112333
     14 C2          -5.2370     0.0470    11.1110 ca         1 D6A      -0.181300
     15 C1          -4.0330    -0.4690    11.6340 ca         1 D6A      -0.072500
     16 C3          -5.1850     1.2080    10.3130 ca         1 D6A      -0.072500
     17 C           -2.8050     0.1530    11.3520 ca         1 D6A      -0.077000
     18 O            0.6260     2.4370    10.1740 os         1 D6A      -0.089700
     19 N           -1.3960     3.0760     9.4670 nc         1 D6A      -0.719000
     20 O1           0.6900     5.3940    11.7000 oh         1 D6A      -0.660000
     21 H1          -3.9570     2.7220     9.4080 ha         1 D6A       0.141000
     22 H2           0.1180     4.4470     7.6480 h1         1 D6A       0.099700
     23 H3           2.4550     3.6460     8.4410 hn         1 D6A       0.449000
     24 H5           0.3680     6.6830     8.6160 hc         1 D6A       0.079200
     25 H6          -0.8350     5.9380     9.6620 hc         1 D6A       0.079200
     26 H7           1.5270     6.9890    10.6640 h1         1 D6A       0.054700
     27 H8           2.6900     4.2840    10.6310 h1         1 D6A       0.050700
     28 H9           3.3530     5.7250     9.8510 h1         1 D6A       0.050700
     29 H10         -4.0430    -1.3550    12.2660 ha         1 D6A       0.133500
     30 H11         -6.0990     1.6380     9.9060 ha         1 D6A       0.133500
     31 H12         -1.8970    -0.2760    11.7720 ha         1 D6A       0.141000
     32 H13          1.3390     5.5740    12.4170 ho         1 D6A       0.448000
     33 C12         -6.5790    -0.6250    11.4280 c3         1 D6A       0.356300
@<TRIPOS>BOND
     1     1     2 ar  
     2     1    16 ar  
     3     1    21 1   
     4     2     3 1   
     5     2    17 ar  
     6     3     4 2   
     7     3    19 1   
     8     4    18 1   
     9     5     6 1   
    10     5    18 1   
    11     5    19 2   
    12     6     7 1   
    13     6     8 1   
    14     6    22 1   
    15     7    10 1   
    16     7    23 1   
    17     8     9 1   
    18     8    24 1   
    19     8    25 1   
    20     9    10 1   
    21     9    20 1   
    22     9    26 1   
    23    10    27 1   
    24    10    28 1   
    25    11    33 1   
    26    12    33 1   
    27    13    33 1   
    28    14    15 ar  
    29    14    16 ar  
    30    14    33 1   
    31    15    17 ar  
    32    15    29 1   
    33    16    30 1   
    34    17    31 1   
    35    20    32 1   
@<TRIPOS>SUBSTRUCTURE
     1 D6A         1 TEMP              0 ****  ****    0 ROOT
