@<TRIPOS>MOLECULE
D6A
   33    35     1     0     0
SMALL
abcg2


@<TRIPOS>ATOM
      1 C4          -3.9500     1.9070    10.1270 ca         1 D6A      -0.077000
      2 C5          -2.7480     1.3220    10.5170 ca         1 D6A      -0.109500
      3 C6          -1.4820     1.9690    10.1740 cc         1 D6A       0.612500
      4 N1          -0.3250     1.4880    10.5220 nd         1 D6A      -0.377300
      5 C7          -0.1260     3.3330     9.3990 cd         1 D6A       0.471300
      6 C8           0.5900     4.4490     8.6910 c5         1 D6A       0.161200
      7 N2           2.0260     4.4500     8.8280 n7         1 D6A      -0.890400
      8 C9           0.2030     5.8040     9.2910 c5         1 D6A      -0.075400
      9 C10          1.1080     5.8760    10.5110 c5         1 D6A       0.143300
     10 C11          2.4080     5.2450     9.9980 c5         1 D6A       0.131800
     11 F2          -7.1910    -0.7820    10.3710 f          1 D6A      -0.112333
     12 F           -6.3650    -1.6640    12.1520 f          1 D6A      -0.112333
     13 F1          -7.2480     0.2960    12.2270 f          1 D6A      -0.112333
     14 C2          -5.1660     0.1090    11.1570 ca         1 D6A      -0.181300
     15 C1          -3.9710    -0.4790    11.5500 ca         1 D6A      -0.072500
     16 C3          -5.1540     1.3040    10.4450 ca         1 D6A      -0.072500
     17 C           -2.7680     0.1260    11.2300 ca         1 D6A      -0.077000
     18 O            0.5670     2.3820    10.0050 os         1 D6A      -0.089700
     19 N           -1.4000     3.1250     9.4590 nc         1 D6A      -0.719000
     20 O1           0.4890     5.1060    11.5230 oh         1 D6A      -0.660000
     21 H1          -3.9480     2.8360     9.5730 ha         1 D6A       0.141000
     22 H2           0.2900     4.3860     7.6400 h1         1 D6A       0.099700
     23 H3           2.4570     3.5380     8.7910 hn         1 D6A       0.449000
     24 H5           0.4580     6.5900     8.5790 hc         1 D6A       0.079200
     25 H6          -0.8550     5.8940     9.5310 hc         1 D6A       0.079200
     26 H7           1.2740     6.9050    10.8470 h1         1 D6A       0.054700
     27 H8           2.8940     4.6490    10.7770 h1         1 D6A       0.050700
     28 H9           3.1160     6.0270     9.7110 h1         1 D6A       0.050700
     29 H10         -3.9580    -1.4070    12.1040 ha         1 D6A       0.133500
     30 H11         -6.0770     1.7760    10.1340 ha         1 D6A       0.133500
     31 H12         -1.8430    -0.3420    11.5380 ha         1 D6A       0.141000
     32 H13          1.1280     4.9460    12.2240 ho         1 D6A       0.448000
     33 C12         -6.4870    -0.5170    11.4810 c3         1 D6A       0.356300
@<TRIPOS>BOND
     1     1     2 ar  
     2     1    16 ar  
     3     1    21 1   
     4     2     3 1   
     5     2    17 ar  
     6     3     4 2   
     7     3    19 1   
     8     4    18 1   
     9     5     6 1   
    10     5    18 1   
    11     5    19 2   
    12     6     7 1   
    13     6     8 1   
    14     6    22 1   
    15     7    10 1   
    16     7    23 1   
    17     8     9 1   
    18     8    24 1   
    19     8    25 1   
    20     9    10 1   
    21     9    20 1   
    22     9    26 1   
    23    10    27 1   
    24    10    28 1   
    25    11    33 1   
    26    12    33 1   
    27    13    33 1   
    28    14    15 ar  
    29    14    16 ar  
    30    14    33 1   
    31    15    17 ar  
    32    15    29 1   
    33    16    30 1   
    34    17    31 1   
    35    20    32 1   
@<TRIPOS>SUBSTRUCTURE
     1 D6A         1 TEMP              0 ****  ****    0 ROOT
