@<TRIPOS>MOLECULE
D6B
   40    41     1     0     0
SMALL
No Charge or Current Charge


@<TRIPOS>ATOM
      1 O15         20.5120     8.9860    15.8320 o          1 D6B      -0.491000
      2 C14         19.6230     9.5770    15.2350 c          1 D6B       0.597100
      3 O16         19.7780    10.7860    14.6080 os         1 D6B      -0.442100
      4 C17         21.0670    11.4240    14.6770 c3         1 D6B       0.152900
      5 C13         18.2190     9.0230    15.0570 c3         1 D6B      -0.170400
      6 C12         18.1850     8.0830    13.8430 c3         1 D6B       0.248800
      7 N11         16.8420     7.4870    13.6230 nh         1 D6B      -0.814100
      8 C18         15.9420     8.1420    12.8080 cc         1 D6B       0.706300
      9 S21         14.4120     7.4170    12.3640 ss         1 D6B      -0.084400
     10 C22         14.0770     8.8490    11.4390 cc         1 D6B      -0.283000
     11 C20         15.1160     9.7450    11.5220 cd         1 D6B       0.334300
     12 C23         15.1670    11.0830    10.8460 c3         1 D6B      -0.121400
     13 N19         16.1830     9.3380    12.3020 nd         1 D6B      -0.725000
     14 C8          16.5650     6.3100    14.3400 ca         1 D6B       0.330000
     15 C7          17.3160     5.1440    14.1170 ca         1 D6B      -0.146500
     16 C6          17.0420     3.9680    14.8360 ca         1 D6B       0.006500
     17 C9          15.5340     6.2920    15.2940 ca         1 D6B      -0.146500
     18 C10         15.2510     5.1230    16.0200 ca         1 D6B       0.006500
     19 C5          16.0080     3.9560    15.7930 ca         1 D6B      -0.281500
     20 S2          15.6510     2.4580    16.7150 sy         1 D6B       1.131600
     21 O3          14.9120     2.7600    17.9390 o          1 D6B      -0.542500
     22 O4          16.7930     1.5480    16.6960 o          1 D6B      -0.542500
     23 N1          14.5480     1.7070    15.7790 n8         1 D6B      -1.008100
     24 H1          21.0490    12.3790    14.1380 h1         1 D6B       0.049033
     25 H2          21.3490    11.6270    15.7190 h1         1 D6B       0.049033
     26 H3          21.8410    10.7920    14.2230 h1         1 D6B       0.049033
     27 H4          17.5220     9.8440    14.8620 hc         1 D6B       0.085700
     28 H5          17.9300     8.4630    15.9520 hc         1 D6B       0.085700
     29 H6          18.9290     7.2900    14.0000 h1         1 D6B       0.077200
     30 H7          18.5250     8.6280    12.9510 h1         1 D6B       0.077200
     31 H8          13.1460     8.9420    10.8950 h4         1 D6B       0.161000
     32 H9          15.2830    11.8880    11.5800 hc         1 D6B       0.050367
     33 H10         16.0100    11.1360    10.1480 hc         1 D6B       0.050367
     34 H11         14.2490    11.2760    10.2780 hc         1 D6B       0.050367
     35 H12         18.1080     5.1450    13.3740 ha         1 D6B       0.132500
     36 H13         17.6320     3.0730    14.6440 ha         1 D6B       0.142000
     37 H14         14.9550     7.1920    15.4780 ha         1 D6B       0.132500
     38 H15         14.4470     5.1300    16.7540 ha         1 D6B       0.142000
     39 H16         14.9760     0.7880    15.6950 hn         1 D6B       0.476000
     40 H17         13.8140     1.5380    16.4630 hn         1 D6B       0.476000
@<TRIPOS>BOND
     1     1     2 2   
     2     2     3 1   
     3     2     5 1   
     4     3     4 1   
     5     4    24 1   
     6     4    25 1   
     7     4    26 1   
     8     5     6 1   
     9     5    27 1   
    10     5    28 1   
    11     6     7 1   
    12     6    29 1   
    13     6    30 1   
    14     7     8 1   
    15     7    14 1   
    16     8     9 1   
    17     8    13 2   
    18     9    10 1   
    19    10    11 2   
    20    10    31 1   
    21    11    12 1   
    22    11    13 1   
    23    12    32 1   
    24    12    33 1   
    25    12    34 1   
    26    14    15 ar  
    27    14    17 ar  
    28    15    16 ar  
    29    15    35 1   
    30    16    19 ar  
    31    16    36 1   
    32    17    18 ar  
    33    17    37 1   
    34    18    19 ar  
    35    18    38 1   
    36    19    20 1   
    37    20    21 2   
    38    20    22 2   
    39    20    23 1   
    40    23    39 1   
    41    23    40 1   
@<TRIPOS>SUBSTRUCTURE
     1 D6B         1 TEMP              0 ****  ****    0 ROOT
