@<TRIPOS>MOLECULE
D6B
   40    41     1     0     0
SMALL
abcg2


@<TRIPOS>ATOM
      1 O15         20.6390     9.2930    13.8570 o          1 D6B      -0.491000
      2 C14         19.7280     9.5940    14.5880 c          1 D6B       0.597100
      3 O16         19.8370    10.4730    15.5740 os         1 D6B      -0.442100
      4 C17         21.1060    11.0940    15.7710 c3         1 D6B       0.152900
      5 C13         18.3350     9.0310    14.5000 c3         1 D6B      -0.170400
      6 C12         18.2160     7.9620    13.4230 c3         1 D6B       0.248800
      7 N11         16.8770     7.3890    13.3770 nh         1 D6B      -0.814100
      8 C18         15.9080     8.0460    12.6800 cc         1 D6B       0.706300
      9 S21         14.3450     7.3290    12.3820 ss         1 D6B      -0.084400
     10 C22         13.9400     8.7160    11.4310 cc         1 D6B      -0.283000
     11 C20         14.9780     9.5850    11.4010 cd         1 D6B       0.334300
     12 C23         14.9930    10.8950    10.6920 c3         1 D6B      -0.121400
     13 N19         16.0870     9.1970    12.1150 nd         1 D6B      -0.725000
     14 C8          16.5630     6.3160    14.2320 ca         1 D6B       0.330000
     15 C7          17.2730     5.1190    14.1220 ca         1 D6B      -0.146500
     16 C6          16.9910     4.0630    14.9660 ca         1 D6B       0.006500
     17 C9          15.5690     6.4410    15.1990 ca         1 D6B      -0.146500
     18 C10         15.2680     5.3770    16.0340 ca         1 D6B       0.006500
     19 C5          15.9820     4.1960    15.9130 ca         1 D6B      -0.281500
     20 S2          15.6430     2.8470    17.0070 sy         1 D6B       1.131600
     21 O3          14.6610     3.3040    17.9790 o          1 D6B      -0.542500
     22 O4          16.8980     2.2970    17.4970 o          1 D6B      -0.542500
     23 N1          15.0430     1.7270    15.9510 n8         1 D6B      -1.008100
     24 H1          20.9830    11.7630    16.6170 h1         1 D6B       0.049033
     25 H2          21.8780    10.3600    16.0010 h1         1 D6B       0.049033
     26 H3          21.4090    11.6690    14.8960 h1         1 D6B       0.049033
     27 H4          17.6390     9.8490    14.2980 hc         1 D6B       0.085700
     28 H5          18.0560     8.6230    15.4760 hc         1 D6B       0.085700
     29 H6          18.9200     7.1520    13.6110 h1         1 D6B       0.077200
     30 H7          18.4500     8.3710    12.4420 h1         1 D6B       0.077200
     31 H8          12.9680     8.8140    10.9750 h4         1 D6B       0.161000
     32 H9          15.1660    11.7140    11.3920 hc         1 D6B       0.050367
     33 H10         15.7930    10.9290     9.9510 hc         1 D6B       0.050367
     34 H11         14.0500    11.0770    10.1810 hc         1 D6B       0.050367
     35 H12         18.0400     5.0110    13.3670 ha         1 D6B       0.132500
     36 H13         17.5440     3.1380    14.8670 ha         1 D6B       0.142000
     37 H14         15.0360     7.3750    15.3150 ha         1 D6B       0.132500
     38 H15         14.4950     5.4870    16.7820 ha         1 D6B       0.142000
     39 H16         15.1070     0.7850    16.3250 hn         1 D6B       0.476000
     40 H17         14.0940     1.9300    15.6520 hn         1 D6B       0.476000
@<TRIPOS>BOND
     1     1     2 2   
     2     2     3 1   
     3     2     5 1   
     4     3     4 1   
     5     4    24 1   
     6     4    25 1   
     7     4    26 1   
     8     5     6 1   
     9     5    27 1   
    10     5    28 1   
    11     6     7 1   
    12     6    29 1   
    13     6    30 1   
    14     7     8 1   
    15     7    14 1   
    16     8     9 1   
    17     8    13 2   
    18     9    10 1   
    19    10    11 2   
    20    10    31 1   
    21    11    12 1   
    22    11    13 1   
    23    12    32 1   
    24    12    33 1   
    25    12    34 1   
    26    14    15 ar  
    27    14    17 ar  
    28    15    16 ar  
    29    15    35 1   
    30    16    19 ar  
    31    16    36 1   
    32    17    18 ar  
    33    17    37 1   
    34    18    19 ar  
    35    18    38 1   
    36    19    20 1   
    37    20    21 2   
    38    20    22 2   
    39    20    23 1   
    40    23    39 1   
    41    23    40 1   
@<TRIPOS>SUBSTRUCTURE
     1 D6B         1 TEMP              0 ****  ****    0 ROOT
