@<TRIPOS>MOLECULE
D6C
   55    57     1     0     0
SMALL
bcc


@<TRIPOS>ATOM
      1 C13          3.0770     3.2690    -1.6720 ca         1 D6C      -0.150000
      2 C15          3.3850     1.1130    -0.6540 ca         1 D6C      -0.160000
      3 C21          4.6360    -4.0770     0.4140 c3         1 D6C       0.153600
      4 C22          2.4120    -4.6400    -0.2310 c3         1 D6C       0.153600
      5 C28          2.5000     2.5150     2.7150 c3         1 D6C      -0.155100
      6 C01         -6.5630    -2.2720    -0.5250 c3         1 D6C       0.124700
      7 C03         -5.0550    -0.5500     0.0950 ca         1 D6C       0.154100
      8 C04         -4.8220     0.6110     0.8350 ca         1 D6C      -0.192500
      9 C05         -3.5830     1.2210     0.7950 ca         1 D6C      -0.063500
     10 C06         -2.5400     0.7000     0.0290 ca         1 D6C      -0.132300
     11 C07         -2.7860    -0.4510    -0.7090 ca         1 D6C      -0.063500
     12 C08         -4.0260    -1.0760    -0.6830 ca         1 D6C      -0.192500
     13 C09         -1.1970     1.3840     0.0750 c3         1 D6C       0.088700
     14 S10         -0.5250     1.4730    -1.6270 ss         1 D6C      -0.263000
     15 C11          1.1870     1.8040    -1.3530 ca         1 D6C      -0.002100
     16 C12          1.7190     3.0140    -1.7820 ca         1 D6C      -0.068000
     17 C14          3.9100     2.3140    -1.1080 ca         1 D6C      -0.099000
     18 C16          2.0260     0.8430    -0.7770 ca         1 D6C       0.096600
     19 N17          1.5230    -0.4030    -0.3470 n          1 D6C      -0.387000
     20 C18          2.1590    -1.6230    -0.8450 c3         1 D6C       0.105000
     21 C19          2.9800    -2.3450     0.2210 c3         1 D6C       0.149800
     22 N20          3.4450    -3.6260    -0.2730 n3         1 D6C      -0.724600
     23 C23          0.4150    -0.5430     0.4260 c          1 D6C       0.706500
     24 O24         -0.1020    -1.6240     0.6320 o          1 D6C      -0.600500
     25 C25         -0.2220     0.7020     1.0460 c3         1 D6C       0.070100
     26 O26          0.7040     1.6960     1.4590 os         1 D6C      -0.422900
     27 C27          1.6340     1.3500     2.3560 c          1 D6C       0.643100
     28 O29          1.7240     0.2340     2.7970 o          1 D6C      -0.519000
     29 H1           3.4790     4.2110    -2.0200 ha         1 D6C       0.137000
     30 H2           4.0400     0.3850    -0.1940 ha         1 D6C       0.144000
     31 H3           4.9940    -5.0030    -0.0370 h1         1 D6C       0.031533
     32 H4           5.4290    -3.3340     0.3220 h1         1 D6C       0.031533
     33 H5           4.4780    -4.2700     1.4870 h1         1 D6C       0.031533
     34 H6           2.0900    -4.8830     0.7930 h1         1 D6C       0.031533
     35 H7           1.5290    -4.3250    -0.7870 h1         1 D6C       0.031533
     36 H8           2.7750    -5.5580    -0.6940 h1         1 D6C       0.031533
     37 H9           1.9170     3.2500     3.2720 hc         1 D6C       0.072700
     38 H10          3.3370     2.1920     3.3270 hc         1 D6C       0.072700
     39 H11          2.8740     3.0080     1.8180 hc         1 D6C       0.072700
     40 H12         -7.5960    -2.5300    -0.3070 h1         1 D6C       0.042367
     41 H13         -6.4540    -2.1390    -1.6050 h1         1 D6C       0.042367
     42 H14         -5.9200    -3.0960    -0.2050 h1         1 D6C       0.042367
     43 H15         -5.6170     1.0310     1.4380 ha         1 D6C       0.142500
     44 H16         -3.4230     2.1220     1.3760 ha         1 D6C       0.139500
     45 H17         -2.0120    -0.8810    -1.3300 ha         1 D6C       0.139500
     46 H18         -4.1670    -1.9690    -1.2770 ha         1 D6C       0.142500
     47 H19         -1.3480     2.4020     0.4420 h1         1 D6C       0.090700
     48 H20          1.0610     3.7570    -2.2150 ha         1 D6C       0.147000
     49 H21          4.9700     2.5040    -1.0060 ha         1 D6C       0.135000
     50 H22          1.3830    -2.2720    -1.2510 h1         1 D6C       0.065200
     51 H23          2.8030    -1.3480    -1.6780 h1         1 D6C       0.065200
     52 H24          3.8520    -1.7320     0.4630 h1         1 D6C       0.044700
     53 H25          2.4040    -2.4400     1.1530 h1         1 D6C       0.044700
     54 H27         -0.7890     0.3550     1.9140 h1         1 D6C       0.099700
     55 O02         -6.2870    -1.0810     0.1860 os         1 D6C      -0.316900
@<TRIPOS>BOND
     1     1    16 ar  
     2     1    17 ar  
     3     1    29 1   
     4     2    17 ar  
     5     2    18 ar  
     6     2    30 1   
     7     3    22 1   
     8     3    31 1   
     9     3    32 1   
    10     3    33 1   
    11     4    22 1   
    12     4    34 1   
    13     4    35 1   
    14     4    36 1   
    15     5    27 1   
    16     5    37 1   
    17     5    38 1   
    18     5    39 1   
    19     6    40 1   
    20     6    41 1   
    21     6    42 1   
    22     6    55 1   
    23     7     8 ar  
    24     7    12 ar  
    25     7    55 1   
    26     8     9 ar  
    27     8    43 1   
    28     9    10 ar  
    29     9    44 1   
    30    10    11 ar  
    31    10    13 1   
    32    11    12 ar  
    33    11    45 1   
    34    12    46 1   
    35    13    14 1   
    36    13    25 1   
    37    13    47 1   
    38    14    15 1   
    39    15    16 ar  
    40    15    18 ar  
    41    16    48 1   
    42    17    49 1   
    43    18    19 1   
    44    19    20 1   
    45    19    23 1   
    46    20    21 1   
    47    20    50 1   
    48    20    51 1   
    49    21    22 1   
    50    21    52 1   
    51    21    53 1   
    52    23    24 2   
    53    23    25 1   
    54    25    26 1   
    55    25    54 1   
    56    26    27 1   
    57    27    28 2   
@<TRIPOS>SUBSTRUCTURE
     1 D6C         1 TEMP              0 ****  ****    0 ROOT
