@<TRIPOS>MOLECULE
D6C
   55    57     1     0     0
SMALL
No Charge or Current Charge


@<TRIPOS>ATOM
      1 C13          2.9080     3.2840    -1.7320 ca         1 D6C      -0.132000
      2 C15          3.3460     1.0530    -0.8730 ca         1 D6C      -0.142000
      3 C21          5.0450    -3.7810     0.9650 c3         1 D6C       0.153600
      4 C22          3.4030    -4.6650    -0.6310 c3         1 D6C       0.153600
      5 C28          2.5390     2.0280     2.8080 c3         1 D6C      -0.155100
      6 C01         -7.1670    -1.7950    -0.3550 c3         1 D6C       0.147900
      7 C03         -5.3780    -0.1770     0.1680 ca         1 D6C       0.154100
      8 C04         -5.0170     1.0230     0.7970 ca         1 D6C      -0.174500
      9 C05         -3.6920     1.4870     0.7450 ca         1 D6C      -0.045500
     10 C06         -2.7080     0.7490     0.0570 ca         1 D6C      -0.132300
     11 C07         -3.0710    -0.4580    -0.5760 ca         1 D6C      -0.045500
     12 C08         -4.3980    -0.9200    -0.5220 ca         1 D6C      -0.174500
     13 C09         -1.2670     1.2610     0.0150 c3         1 D6C       0.136600
     14 S10         -0.6470     1.3220    -1.7240 ss         1 D6C      -0.184000
     15 C11          1.0880     1.6800    -1.5060 ca         1 D6C      -0.129000
     16 C12          1.5510     2.9580    -1.8670 ca         1 D6C      -0.050000
     17 C14          3.8050     2.3330    -1.2260 ca         1 D6C      -0.081000
     18 C16          1.9930     0.6870    -1.0550 ca         1 D6C       0.004000
     19 N17          1.5310    -0.5800    -0.5320 n          1 D6C      -0.227400
     20 C18          2.3000    -1.7950    -0.9020 c3         1 D6C       0.105000
     21 C19          3.1690    -2.3520     0.2560 c3         1 D6C       0.149800
     22 N20          4.0940    -3.4550    -0.1220 n3         1 D6C      -0.724600
     23 C23          0.3280    -0.7610     0.2100 c          1 D6C       0.564000
     24 O24         -0.1500    -1.8810     0.3640 o          1 D6C      -0.525000
     25 C25         -0.3210     0.4540     0.9360 c3         1 D6C       0.093300
     26 O26          0.6580     1.3840     1.4830 os         1 D6C      -0.446100
     27 C27          1.5660     0.9330     2.4040 c          1 D6C       0.594100
     28 O29          1.5980    -0.2050     2.8490 o          1 D6C      -0.470000
     29 H1           3.2600     4.2760    -2.0050 ha         1 D6C       0.119000
     30 H2           4.0580     0.3480    -0.4570 ha         1 D6C       0.126000
     31 H3           5.7680    -4.5390     0.6350 h1         1 D6C       0.031533
     32 H4           5.6080    -2.8890     1.2690 h1         1 D6C       0.031533
     33 H5           4.5160    -4.1700     1.8450 h1         1 D6C       0.031533
     34 H6           2.7270    -5.0800     0.1300 h1         1 D6C       0.031533
     35 H7           2.8140    -4.4380    -1.5300 h1         1 D6C       0.031533
     36 H8           4.1310    -5.4410    -0.9020 h1         1 D6C       0.031533
     37 H9           1.9700     2.8880     3.1760 hc         1 D6C       0.072700
     38 H10          3.2810     1.6860     3.5370 hc         1 D6C       0.072700
     39 H11          3.0090     2.4320     1.9040 hc         1 D6C       0.072700
     40 H12         -8.2400    -1.9240    -0.1650 h1         1 D6C       0.042367
     41 H13         -7.0160    -1.7700    -1.4420 h1         1 D6C       0.042367
     42 H14         -6.6420    -2.6670     0.0540 h1         1 D6C       0.042367
     43 H15         -5.7700     1.5980     1.3310 ha         1 D6C       0.124500
     44 H16         -3.4320     2.4200     1.2420 ha         1 D6C       0.121500
     45 H17         -2.3290    -1.0430    -1.1150 ha         1 D6C       0.121500
     46 H18         -4.6430    -1.8530    -1.0210 ha         1 D6C       0.124500
     47 H19         -1.2680     2.2970     0.3770 h1         1 D6C       0.090700
     48 H20          0.8530     3.7020    -2.2470 ha         1 D6C       0.129000
     49 H21          4.8540     2.5900    -1.0960 ha         1 D6C       0.117000
     50 H22          1.6090    -2.5690    -1.2560 h1         1 D6C       0.065200
     51 H23          2.9590    -1.5500    -1.7450 h1         1 D6C       0.065200
     52 H24          3.7530    -1.5200     0.6690 h1         1 D6C       0.044700
     53 H25          2.4980    -2.6880     1.0590 h1         1 D6C       0.044700
     54 H27         -0.9210     0.0420     1.7580 h1         1 D6C       0.099700
     55 O02         -6.6950    -0.5810     0.2550 os         1 D6C      -0.340100
@<TRIPOS>BOND
     1     1    16 ar  
     2     1    17 ar  
     3     1    29 1   
     4     2    17 ar  
     5     2    18 ar  
     6     2    30 1   
     7     3    22 1   
     8     3    31 1   
     9     3    32 1   
    10     3    33 1   
    11     4    22 1   
    12     4    34 1   
    13     4    35 1   
    14     4    36 1   
    15     5    27 1   
    16     5    37 1   
    17     5    38 1   
    18     5    39 1   
    19     6    40 1   
    20     6    41 1   
    21     6    42 1   
    22     6    55 1   
    23     7     8 ar  
    24     7    12 ar  
    25     7    55 1   
    26     8     9 ar  
    27     8    43 1   
    28     9    10 ar  
    29     9    44 1   
    30    10    11 ar  
    31    10    13 1   
    32    11    12 ar  
    33    11    45 1   
    34    12    46 1   
    35    13    14 1   
    36    13    25 1   
    37    13    47 1   
    38    14    15 1   
    39    15    16 ar  
    40    15    18 ar  
    41    16    48 1   
    42    17    49 1   
    43    18    19 1   
    44    19    20 1   
    45    19    23 1   
    46    20    21 1   
    47    20    50 1   
    48    20    51 1   
    49    21    22 1   
    50    21    52 1   
    51    21    53 1   
    52    23    24 2   
    53    23    25 1   
    54    25    26 1   
    55    25    54 1   
    56    26    27 1   
    57    27    28 2   
@<TRIPOS>SUBSTRUCTURE
     1 D6C         1 TEMP              0 ****  ****    0 ROOT
