@<TRIPOS>MOLECULE
D6D
   37    39     1     0     0
SMALL
bcc


@<TRIPOS>ATOM
      1 O3          -4.9330     2.6110     7.4560 oh         1 D6D      -0.607800
      2 C4          -3.0860     1.8950    10.4050 c6         1 D6D       0.114500
      3 C5          -2.4740     2.8140     9.3380 c6         1 D6D       0.176100
      4 C6          -1.0310     3.1760     9.7000 c6         1 D6D       0.141500
      5 N1          -0.3730     3.7410     8.5360 n8         1 D6D      -0.863800
      6 C7          -0.3430     1.9230    10.2900 c5         1 D6D       0.052100
      7 C8          -0.4890     1.7850    11.8210 c5         1 D6D       0.102400
      8 C9          -2.1110     0.7170    10.7010 c5         1 D6D       0.279900
      9 C10         -5.5570     1.4140     7.8770 c3         1 D6D       0.147400
     10 C2          -4.6880     0.6830     8.8920 c5         1 D6D       0.186500
     11 C1          -5.4340    -0.5530     9.4060 c5         1 D6D      -0.101400
     12 N           -4.4410     1.4990    10.0860 n3         1 D6D      -0.747600
     13 C3          -5.1610     0.9360    11.2290 c5         1 D6D       0.175800
     14 C           -6.1780    -0.0200    10.6260 c5         1 D6D      -0.092400
     15 O           -1.5390     0.8400    11.9790 os         1 D6D      -0.411600
     16 O1          -1.0120     0.7550     9.8310 os         1 D6D      -0.398600
     17 O2          -3.2310     3.9810     9.1760 oh         1 D6D      -0.586800
     18 H1          -5.5320     3.0800     6.8690 ho         1 D6D       0.411000
     19 H2          -3.1660     2.4940    11.3210 h1         1 D6D       0.082700
     20 H3          -2.4320     2.2560     8.3920 h1         1 D6D       0.042700
     21 H4          -1.0500     3.9530    10.4730 h1         1 D6D       0.079700
     22 H5           0.5700     4.0230     8.7780 hn         1 D6D       0.340300
     23 H6          -0.2770     3.0340     7.8160 hn         1 D6D       0.340300
     24 H8           0.7010     1.8770     9.9770 h1         1 D6D       0.081700
     25 H9           0.4180     1.3960    12.2870 h1         1 D6D       0.056700
     26 H10         -0.7360     2.7390    12.2960 h1         1 D6D       0.056700
     27 H11         -2.5970    -0.2600    10.6200 h2         1 D6D       0.101700
     28 H12         -6.5370     1.6220     8.3250 h1         1 D6D       0.022700
     29 H13         -5.7240     0.7490     7.0210 h1         1 D6D       0.022700
     30 H14         -3.7500     0.3960     8.4030 h1         1 D6D       0.063700
     31 H15         -6.0910    -1.0000     8.6570 hc         1 D6D       0.050700
     32 H16         -4.7200    -1.3230     9.7090 hc         1 D6D       0.050700
     33 H18         -4.4920     0.3770    11.9000 h1         1 D6D       0.044200
     34 H19         -5.6220     1.7240    11.8300 h1         1 D6D       0.044200
     35 H20         -7.0850     0.5100    10.3250 hc         1 D6D       0.052200
     36 H21         -6.4730    -0.8030    11.3240 hc         1 D6D       0.052200
     37 H22         -4.0250     3.7000     8.6930 ho         1 D6D       0.437000
@<TRIPOS>BOND
     1     1     9 1   
     2     1    18 1   
     3     2     3 1   
     4     2     8 1   
     5     2    12 1   
     6     2    19 1   
     7     3     4 1   
     8     3    17 1   
     9     3    20 1   
    10     4     5 1   
    11     4     6 1   
    12     4    21 1   
    13     5    22 1   
    14     5    23 1   
    15     6     7 1   
    16     6    16 1   
    17     6    24 1   
    18     7    15 1   
    19     7    25 1   
    20     7    26 1   
    21     8    15 1   
    22     8    16 1   
    23     8    27 1   
    24     9    10 1   
    25     9    28 1   
    26     9    29 1   
    27    10    11 1   
    28    10    12 1   
    29    10    30 1   
    30    11    14 1   
    31    11    31 1   
    32    11    32 1   
    33    12    13 1   
    34    13    14 1   
    35    13    33 1   
    36    13    34 1   
    37    14    35 1   
    38    14    36 1   
    39    17    37 1   
@<TRIPOS>SUBSTRUCTURE
     1 D6D         1 TEMP              0 ****  ****    0 ROOT
