@<TRIPOS>MOLECULE
D6D
   37    39     1     0     0
SMALL
No Charge or Current Charge


@<TRIPOS>ATOM
      1 O3          -5.0710     2.7400     7.4500 oh         1 D6D      -0.670000
      2 C4          -3.0560     1.9050    10.4410 c6         1 D6D       0.114500
      3 C5          -2.4380     2.8080     9.3220 c6         1 D6D       0.199300
      4 C6          -0.9430     3.1900     9.6560 c6         1 D6D       0.141500
      5 N1          -0.2520     3.7390     8.4460 n8         1 D6D      -0.974200
      6 C7          -0.2330     1.9640    10.3360 c5         1 D6D       0.075300
      7 C8          -0.4660     1.8850    11.8870 c5         1 D6D       0.125600
      8 C9          -2.0720     0.6950    10.7350 c5         1 D6D       0.326300
      9 C10         -5.6620     1.4970     7.8720 c3         1 D6D       0.170600
     10 C2          -4.7640     0.7100     8.8890 c5         1 D6D       0.186500
     11 C1          -5.4650    -0.5820     9.4020 c5         1 D6D      -0.101400
     12 N           -4.4730     1.4610    10.1650 n3         1 D6D      -0.747600
     13 C3          -5.1690     0.7730    11.2960 c5         1 D6D       0.175800
     14 C           -6.2810    -0.0310    10.5940 c5         1 D6D      -0.092400
     15 O           -1.4730     0.8490    12.0370 os         1 D6D      -0.458000
     16 O1          -0.8950     0.7530     9.9000 os         1 D6D      -0.445000
     17 O2          -3.2610     3.9640     9.0920 oh         1 D6D      -0.649000
     18 H1          -5.6450     3.0920     6.7330 ho         1 D6D       0.450000
     19 H2          -3.0830     2.5230    11.3510 h1         1 D6D       0.082700
     20 H3          -2.4150     2.2080     8.4010 h1         1 D6D       0.042700
     21 H4          -0.9660     4.0100    10.3920 h1         1 D6D       0.079700
     22 H5           0.7140     3.9900     8.6910 hn         1 D6D       0.395500
     23 H6          -0.1380     2.9840     7.7600 hn         1 D6D       0.395500
     24 H8           0.8340     1.9370    10.0770 h1         1 D6D       0.081700
     25 H9           0.4410     1.5860    12.4280 h1         1 D6D       0.056700
     26 H10         -0.8340     2.8290    12.3110 h1         1 D6D       0.056700
     27 H11         -2.5700    -0.2790    10.6440 h2         1 D6D       0.101700
     28 H12         -6.6400     1.6940     8.3300 h1         1 D6D       0.022700
     29 H13         -5.8360     0.8540     6.9990 h1         1 D6D       0.022700
     30 H14         -3.8410     0.4360     8.3580 h1         1 D6D       0.063700
     31 H15         -6.0940    -1.0550     8.6410 hc         1 D6D       0.050700
     32 H16         -4.7320    -1.3300     9.7270 hc         1 D6D       0.050700
     33 H18         -4.4940     0.0910    11.8320 h1         1 D6D       0.044200
     34 H19         -5.5710     1.4850    12.0290 h1         1 D6D       0.044200
     35 H20         -7.1150     0.6070    10.2800 hc         1 D6D       0.052200
     36 H21         -6.6880    -0.8230    11.2320 hc         1 D6D       0.052200
     37 H22         -4.0540     3.5810     8.6290 ho         1 D6D       0.476000
@<TRIPOS>BOND
     1     1     9 1   
     2     1    18 1   
     3     2     3 1   
     4     2     8 1   
     5     2    12 1   
     6     2    19 1   
     7     3     4 1   
     8     3    17 1   
     9     3    20 1   
    10     4     5 1   
    11     4     6 1   
    12     4    21 1   
    13     5    22 1   
    14     5    23 1   
    15     6     7 1   
    16     6    16 1   
    17     6    24 1   
    18     7    15 1   
    19     7    25 1   
    20     7    26 1   
    21     8    15 1   
    22     8    16 1   
    23     8    27 1   
    24     9    10 1   
    25     9    28 1   
    26     9    29 1   
    27    10    11 1   
    28    10    12 1   
    29    10    30 1   
    30    11    14 1   
    31    11    31 1   
    32    11    32 1   
    33    12    13 1   
    34    13    14 1   
    35    13    33 1   
    36    13    34 1   
    37    14    35 1   
    38    14    36 1   
    39    17    37 1   
@<TRIPOS>SUBSTRUCTURE
     1 D6D         1 TEMP              0 ****  ****    0 ROOT
