@<TRIPOS>MOLECULE
D6E
   38    37     1     0     0
SMALL
No Charge or Current Charge


@<TRIPOS>ATOM
      1 OE1          4.3930     2.4310    -0.7930 o          1 D6E      -0.777000
      2 CD           4.1540     1.3670    -1.3440 c          1 D6E       0.710000
      3 OE2          4.9150     0.8390    -2.1390 o          1 D6E      -0.777000
      4 CG           2.8550     0.6280    -0.9740 c3         1 D6E      -0.197400
      5 CB           3.1010    -0.3150     0.2330 c3         1 D6E      -0.048400
      6 CA           1.8870    -1.2020     0.6210 c3         1 D6E      -0.037300
      7 C            2.2740    -2.2430     1.7200 c          1 D6E       0.714000
      8 O            2.4850    -1.8470     2.8600 o          1 D6E      -0.762500
      9 OXT          2.2790    -3.4290     1.4200 o          1 D6E      -0.762500
     10 N            0.7200    -0.3990     1.0620 ns         1 D6E      -0.450900
     11 CAR         -0.3550    -0.0600     0.2790 c          1 D6E       0.647100
     12 OAF         -0.4880    -0.4060    -0.8840 o          1 D6E      -0.668100
     13 NAN         -1.2650     0.7090     0.9590 ns         1 D6E      -0.481900
     14 CAU         -2.5540     1.2090     0.4160 c3         1 D6E      -0.027300
     15 CAQ         -2.7460     2.7170     0.7780 c          1 D6E       0.707000
     16 OAI         -2.6830     3.0540     1.9540 o          1 D6E      -0.744000
     17 OAE         -2.8880     3.5180    -0.1360 o          1 D6E      -0.744000
     18 CAL         -3.7570     0.3570     0.9090 c3         1 D6E      -0.059400
     19 CAS         -3.8060    -1.1120     0.4020 c3         1 D6E      -0.063700
     20 CAB         -4.8920    -1.9190     1.1510 c3         1 D6E      -0.078100
     21 CAA         -4.0190    -1.2090    -1.1290 c3         1 D6E      -0.078100
     22 H2           2.0900     1.3440    -0.6520 hc         1 D6E       0.022200
     23 H3           2.5360    -0.0190    -1.8000 hc         1 D6E       0.022200
     24 H4           3.9450    -0.9750    -0.0050 hc         1 D6E       0.034700
     25 H5           3.4070     0.2810     1.1010 hc         1 D6E       0.034700
     26 H6           1.5930    -1.7800    -0.2640 h1         1 D6E       0.057700
     27 H8           0.7090    -0.0730     2.0200 hn         1 D6E       0.268500
     28 H9          -1.0340     0.9540     1.9130 hn         1 D6E       0.266500
     29 H10         -2.5140     1.1620    -0.6790 h1         1 D6E       0.061700
     30 H12         -3.7510     0.3570     2.0060 hc         1 D6E       0.027200
     31 H13         -4.6860     0.8590     0.6100 hc         1 D6E       0.027200
     32 H14         -2.8440    -1.5850     0.6330 hc         1 D6E       0.060700
     33 H15         -4.7090    -1.9060     2.2320 hc         1 D6E       0.016200
     34 H16         -5.8880    -1.4990     0.9660 hc         1 D6E       0.016200
     35 H17         -4.8930    -2.9660     0.8230 hc         1 D6E       0.016200
     36 H18         -3.2030    -0.7280    -1.6780 hc         1 D6E       0.016200
     37 H19         -4.0580    -2.2580    -1.4470 hc         1 D6E       0.016200
     38 H20         -4.9610    -0.7290    -1.4220 hc         1 D6E       0.016200
@<TRIPOS>BOND
     1     1     2 1   
     2     2     3 1   
     3     2     4 1   
     4     4     5 1   
     5     4    22 1   
     6     4    23 1   
     7     5     6 1   
     8     5    24 1   
     9     5    25 1   
    10     6     7 1   
    11     6    10 1   
    12     6    26 1   
    13     7     8 1   
    14     7     9 1   
    15    10    11 1   
    16    10    27 1   
    17    11    12 2   
    18    11    13 1   
    19    13    14 1   
    20    13    28 1   
    21    14    15 1   
    22    14    18 1   
    23    14    29 1   
    24    15    16 1   
    25    15    17 1   
    26    18    19 1   
    27    18    30 1   
    28    18    31 1   
    29    19    20 1   
    30    19    21 1   
    31    19    32 1   
    32    20    33 1   
    33    20    34 1   
    34    20    35 1   
    35    21    36 1   
    36    21    37 1   
    37    21    38 1   
@<TRIPOS>SUBSTRUCTURE
     1 D6E         1 TEMP              0 ****  ****    0 ROOT
