@<TRIPOS>MOLECULE
D6E
   38    37     1     0     0
SMALL
bcc


@<TRIPOS>ATOM
      1 OE1          5.4020     0.3340     1.6160 o          1 D6E      -0.882300
      2 CD           4.8390     1.2940     1.0530 c          1 D6E       0.920600
      3 OE2          5.2200     2.4840     1.0730 o          1 D6E      -0.882300
      4 CG           3.5470     1.0140     0.2660 c3         1 D6E      -0.197400
      5 CB           3.1870    -0.4520     0.0910 c3         1 D6E      -0.048400
      6 CA           1.9250    -0.6820    -0.7430 c3         1 D6E      -0.037300
      7 C            1.7470    -2.1950    -1.0180 c          1 D6E       0.924600
      8 O            0.9050    -2.8100    -0.3390 o          1 D6E      -0.867800
      9 OXT          2.5050    -2.6730    -1.8880 o          1 D6E      -0.867800
     10 N            0.7930    -0.0820    -0.0730 ns         1 D6E      -0.517900
     11 CAR         -0.4290    -0.0790    -0.6770 c          1 D6E       0.781100
     12 OAF         -0.5670    -0.2610    -1.8830 o          1 D6E      -0.668100
     13 NAN         -1.4820     0.1460     0.1560 ns         1 D6E      -0.548900
     14 CAU         -2.7640     0.5320    -0.3830 c3         1 D6E      -0.027300
     15 CAQ         -2.7640     1.9300    -1.0480 c          1 D6E       0.917600
     16 OAI         -1.7870     2.6720    -0.8400 o          1 D6E      -0.849300
     17 OAE         -3.7780     2.1950    -1.7270 o          1 D6E      -0.849300
     18 CAL         -3.8190     0.4830     0.7230 c3         1 D6E      -0.059400
     19 CAS         -3.9350    -0.8520     1.4620 c3         1 D6E      -0.063700
     20 CAB         -5.0050    -0.7570     2.5450 c3         1 D6E      -0.078100
     21 CAA         -4.2280    -2.0130     0.5180 c3         1 D6E      -0.078100
     22 H2           2.7290     1.5470     0.7630 hc         1 D6E       0.022200
     23 H3           3.6340     1.4890    -0.7180 hc         1 D6E       0.022200
     24 H4           4.0100    -0.9750    -0.3990 hc         1 D6E       0.034700
     25 H5           3.0640    -0.9290     1.0690 hc         1 D6E       0.034700
     26 H6           2.0640    -0.1790    -1.7050 h1         1 D6E       0.057700
     27 H8           0.7900    -0.1950     0.9300 hn         1 D6E       0.268500
     28 H9          -1.2610     0.5380     1.0590 hn         1 D6E       0.266500
     29 H10         -3.0390    -0.1950    -1.1510 h1         1 D6E       0.061700
     30 H12         -3.6090     1.2730     1.4560 hc         1 D6E       0.027200
     31 H13         -4.7860     0.7330     0.2780 hc         1 D6E       0.027200
     32 H14         -2.9770    -1.0540     1.9530 hc         1 D6E       0.060700
     33 H15         -4.8040     0.0620     3.2380 hc         1 D6E       0.016200
     34 H16         -5.9920    -0.5850     2.1080 hc         1 D6E       0.016200
     35 H17         -5.0600    -1.6790     3.1280 hc         1 D6E       0.016200
     36 H18         -3.4270    -2.1630    -0.2070 hc         1 D6E       0.016200
     37 H19         -4.3430    -2.9460     1.0730 hc         1 D6E       0.016200
     38 H20         -5.1540    -1.8430    -0.0380 hc         1 D6E       0.016200
@<TRIPOS>BOND
     1     1     2 1   
     2     2     3 1   
     3     2     4 1   
     4     4     5 1   
     5     4    22 1   
     6     4    23 1   
     7     5     6 1   
     8     5    24 1   
     9     5    25 1   
    10     6     7 1   
    11     6    10 1   
    12     6    26 1   
    13     7     8 1   
    14     7     9 1   
    15    10    11 1   
    16    10    27 1   
    17    11    12 2   
    18    11    13 1   
    19    13    14 1   
    20    13    28 1   
    21    14    15 1   
    22    14    18 1   
    23    14    29 1   
    24    15    16 1   
    25    15    17 1   
    26    18    19 1   
    27    18    30 1   
    28    18    31 1   
    29    19    20 1   
    30    19    21 1   
    31    19    32 1   
    32    20    33 1   
    33    20    34 1   
    34    20    35 1   
    35    21    36 1   
    36    21    37 1   
    37    21    38 1   
@<TRIPOS>SUBSTRUCTURE
     1 D6E         1 TEMP              0 ****  ****    0 ROOT
