@<TRIPOS>MOLECULE
D6F
   82    87     1     0     0
SMALL
bcc


@<TRIPOS>ATOM
      1 C41          6.5120    -8.2490    -4.0330 c3         1 D6F      -0.241000
      2 C39          7.9210    -7.8980    -3.6010 c3         1 D6F      -0.057000
      3 N30          7.9130    -6.9060    -2.5100 na         1 D6F      -0.033000
      4 C31          7.9860    -5.5980    -2.7920 c2         1 D6F       0.008667
      5 C32          7.9230    -4.6560    -1.7980 c2         1 D6F      -0.152833
      6 C29          7.7720    -7.3180    -1.2420 c2         1 D6F       0.008667
      7 C28          7.7070    -6.4200    -0.2090 c2         1 D6F      -0.152833
      8 C22          7.7800    -5.0460    -0.4630 c2         1 D6F       0.113000
      9 C12          7.7150    -4.0640     0.6200 ca         1 D6F      -0.115000
     10 C13          7.0000    -4.3360     1.7890 ca         1 D6F      -0.060167
     11 C14          6.9290    -3.4100     2.8110 ca         1 D6F      -0.156500
     12 C11          8.3690    -2.8340     0.5130 ca         1 D6F      -0.060167
     13 C10          8.3250    -1.9150     1.5430 ca         1 D6F      -0.156500
     14 C4           7.5990    -2.1910     2.7020 ca         1 D6F       0.107667
     15 N1           7.5460    -1.2600     3.7500 nh         1 D6F      -0.214000
     16 C3           7.6510    -1.7040     5.0770 ca         1 D6F       0.107667
     17 C9           6.8460    -1.1530     6.0740 ca         1 D6F      -0.156500
     18 C8           6.9630    -1.5850     7.3800 ca         1 D6F      -0.060167
     19 C5           8.5630    -2.7040     5.4160 ca         1 D6F      -0.156500
     20 C6           8.6560    -3.1490     6.7190 ca         1 D6F      -0.060167
     21 C7           7.8640    -2.5940     7.7280 ca         1 D6F      -0.115000
     22 C20          7.9810    -3.0560     9.1110 c2         1 D6F       0.113000
     23 C27          8.3960    -4.3560     9.4160 c2         1 D6F      -0.152833
     24 C26          8.5070    -4.7590    10.7220 c2         1 D6F       0.008667
     25 C23          7.6860    -2.2170    10.1900 c2         1 D6F      -0.152833
     26 C24          7.8090    -2.6740    11.4760 c2         1 D6F       0.008667
     27 N25          8.2130    -3.9260    11.7300 na         1 D6F      -0.033000
     28 C40          8.4030    -4.3620    13.1260 c3         1 D6F      -0.057000
     29 C43          9.7910    -4.0090    13.6230 c3         1 D6F      -0.241000
     30 C2           7.4180     0.1070     3.4740 ca         1 D6F       0.107667
     31 C19          6.5930     0.5450     2.4370 ca         1 D6F      -0.156500
     32 C18          6.4820     1.8920     2.1560 ca         1 D6F      -0.060167
     33 C15          8.1150     1.0510     4.2300 ca         1 D6F      -0.156500
     34 C16          7.9780     2.3970     3.9600 ca         1 D6F      -0.060167
     35 C17          7.1660     2.8450     2.9150 ca         1 D6F      -0.115000
     36 C21          7.0400     4.2730     2.6230 c2         1 D6F       0.113000
     37 C37          7.2120     5.2420     3.6180 c2         1 D6F      -0.152833
     38 C36          7.1000     6.5740     3.3140 c2         1 D6F       0.008667
     39 C33          6.7460     4.7350     1.3360 c2         1 D6F      -0.152833
     40 C34          6.6430     6.0790     1.0900 c2         1 D6F       0.008667
     41 N35          6.8170     6.9780     2.0690 na         1 D6F      -0.033000
     42 C38          6.7730     8.4180     1.7550 c3         1 D6F      -0.057000
     43 C42          8.1340     8.9210     1.3140 c3         1 D6F      -0.241000
     44 H41          6.5620    -8.9840    -4.8350 hc         1 D6F       0.114444
     45 H9O          5.9390    -8.6820    -3.2140 hc         1 D6F       0.114444
     46 H9P          5.9810    -7.3750    -4.4080 hc         1 D6F       0.114444
     47 H39          8.4590    -8.7720    -3.2400 h1         1 D6F       0.137333
     48 H9M          8.4960    -7.4730    -4.4210 h1         1 D6F       0.137333
     49 H31          8.0920    -5.3290    -3.8320 h4         1 D6F       0.205000
     50 H32          7.9680    -3.6150    -2.0840 ha         1 D6F       0.187000
     51 H29          7.7260    -8.3850    -1.0790 h4         1 D6F       0.205000
     52 H28          7.6230    -6.8060     0.7960 ha         1 D6F       0.187000
     53 H13          6.4520    -5.2630     1.8930 ha         1 D6F       0.147833
     54 H14          6.3410    -3.6340     3.6910 ha         1 D6F       0.159167
     55 H11          8.9620    -2.6020    -0.3620 ha         1 D6F       0.147833
     56 H10          8.8700    -0.9850     1.4500 ha         1 D6F       0.159167
     57 H9           6.1160    -0.3930     5.8300 ha         1 D6F       0.159167
     58 H8           6.3060    -1.1530     8.1240 ha         1 D6F       0.147833
     59 H5           9.2120    -3.1310     4.6620 ha         1 D6F       0.159167
     60 H6           9.3910    -3.9080     6.9520 ha         1 D6F       0.147833
     61 H27          8.6170    -5.0780     8.6430 ha         1 D6F       0.187000
     62 H26          8.8220    -5.7560    10.9900 h4         1 D6F       0.205000
     63 H23          7.3780    -1.1920    10.0450 ha         1 D6F       0.187000
     64 H24          7.5950    -2.0480    12.3300 h4         1 D6F       0.205000
     65 H40          7.6300    -3.8830    13.7230 h1         1 D6F       0.137333
     66 H9N          8.2280    -5.4350    13.1590 h1         1 D6F       0.137333
     67 H9T          9.8880    -4.3290    14.6590 hc         1 D6F       0.114444
     68 H43         10.5620    -4.5100    13.0390 hc         1 D6F       0.114444
     69 H9S          9.9660    -2.9340    13.5850 hc         1 D6F       0.114444
     70 H19          6.0230    -0.1670     1.8540 ha         1 D6F       0.159167
     71 H18          5.8190     2.1970     1.3580 ha         1 D6F       0.147833
     72 H15          8.7780     0.7350     5.0240 ha         1 D6F       0.159167
     73 H16          8.5530     3.1000     4.5490 ha         1 D6F       0.147833
     74 H37          7.4130     4.9720     4.6440 ha         1 D6F       0.187000
     75 H36          7.2230     7.3440     4.0610 h4         1 D6F       0.205000
     76 H33          6.6190     4.0580     0.5050 ha         1 D6F       0.187000
     77 H34          6.4230     6.4670     0.1060 h4         1 D6F       0.205000
     78 H9L          6.4260     8.9340     2.6470 h1         1 D6F       0.137333
     79 H38          6.0240     8.5590     0.9790 h1         1 D6F       0.137333
     80 H42          8.0610     9.9820     1.0810 hc         1 D6F       0.114444
     81 H9Q          8.8770     8.7960     2.1010 hc         1 D6F       0.114444
     82 H9R          8.4790     8.4020     0.4210 hc         1 D6F       0.114444
@<TRIPOS>BOND
     1     1     2 1   
     2     1    44 1   
     3     1    45 1   
     4     1    46 1   
     5     2     3 1   
     6     2    47 1   
     7     2    48 1   
     8     3     4 1   
     9     3     6 1   
    10     4     5 1   
    11     4    49 1   
    12     5     8 1   
    13     5    50 1   
    14     6     7 1   
    15     6    51 1   
    16     7     8 1   
    17     7    52 1   
    18     8     9 1   
    19     9    10 1   
    20     9    12 1   
    21    10    11 1   
    22    10    53 1   
    23    11    14 1   
    24    11    54 1   
    25    12    13 1   
    26    12    55 1   
    27    13    14 1   
    28    13    56 1   
    29    14    15 1   
    30    15    16 1   
    31    15    30 1   
    32    16    17 1   
    33    16    19 1   
    34    17    18 1   
    35    17    57 1   
    36    18    21 1   
    37    18    58 1   
    38    19    20 1   
    39    19    59 1   
    40    20    21 1   
    41    20    60 1   
    42    21    22 1   
    43    22    23 1   
    44    22    25 1   
    45    23    24 1   
    46    23    61 1   
    47    24    27 1   
    48    24    62 1   
    49    25    26 1   
    50    25    63 1   
    51    26    27 1   
    52    26    64 1   
    53    27    28 1   
    54    28    29 1   
    55    28    65 1   
    56    28    66 1   
    57    29    67 1   
    58    29    68 1   
    59    29    69 1   
    60    30    31 1   
    61    30    33 1   
    62    31    32 1   
    63    31    70 1   
    64    32    35 1   
    65    32    71 1   
    66    33    34 1   
    67    33    72 1   
    68    34    35 1   
    69    34    73 1   
    70    35    36 1   
    71    36    37 1   
    72    36    39 1   
    73    37    38 1   
    74    37    74 1   
    75    38    41 1   
    76    38    75 1   
    77    39    40 1   
    78    39    76 1   
    79    40    41 1   
    80    40    77 1   
    81    41    42 1   
    82    42    43 1   
    83    42    78 1   
    84    42    79 1   
    85    43    80 1   
    86    43    81 1   
    87    43    82 1   
@<TRIPOS>SUBSTRUCTURE
     1 D6F         1 TEMP              0 ****  ****    0 ROOT
