@<TRIPOS>MOLECULE
D6F
   82    87     1     0     0
SMALL
No Charge or Current Charge


@<TRIPOS>ATOM
      1 C41          6.5260    -8.6620    -3.6400 c3         1 D6F      -0.241000
      2 C39          7.8710    -7.9000    -3.6020 c3         1 D6F      -0.057000
      3 N30          7.9170    -6.8830    -2.5370 na         1 D6F      -0.033000
      4 C31          7.4400    -5.5480    -2.7180 c2         1 D6F       0.008667
      5 C32          7.4020    -4.6600    -1.7050 c2         1 D6F      -0.152833
      6 C29          8.3190    -7.1790    -1.1980 c2         1 D6F       0.008667
      7 C28          8.2630    -6.2590    -0.2150 c2         1 D6F      -0.152833
      8 C22          7.8110    -5.0160    -0.4710 c2         1 D6F       0.113000
      9 C12          7.7610    -4.0870     0.5540 ca         1 D6F      -0.115000
     10 C13          7.0690    -4.3750     1.7490 ca         1 D6F      -0.060167
     11 C14          7.0200    -3.4300     2.7880 ca         1 D6F      -0.156500
     12 C11          8.4000    -2.8370     0.4210 ca         1 D6F      -0.060167
     13 C10          8.3480    -1.8960     1.4630 ca         1 D6F      -0.156500
     14 C4           7.6570    -2.1790     2.6590 ca         1 D6F       0.107667
     15 N1           7.6060    -1.2250     3.7120 nh         1 D6F      -0.214000
     16 C3           7.6970    -1.6540     5.0640 ca         1 D6F       0.107667
     17 C9           6.9150    -1.0450     6.0670 ca         1 D6F      -0.156500
     18 C8           7.0040    -1.4670     7.4050 ca         1 D6F      -0.060167
     19 C5           8.5710    -2.6960     5.4320 ca         1 D6F      -0.156500
     20 C6           8.6630    -3.1220     6.7690 ca         1 D6F      -0.060167
     21 C7           7.8790    -2.5100     7.7680 ca         1 D6F      -0.115000
     22 C20          7.9680    -2.9270     9.0860 c2         1 D6F       0.113000
     23 C27          7.7780    -4.2280     9.3820 c2         1 D6F      -0.152833
     24 C26          7.8610    -4.6560    10.6570 c2         1 D6F       0.008667
     25 C23          8.2470    -2.0250    10.0470 c2         1 D6F      -0.152833
     26 C24          8.3400    -2.4080    11.3350 c2         1 D6F       0.008667
     27 N25          8.1400    -3.7640    11.7380 na         1 D6F      -0.033000
     28 C40          8.3390    -4.2250    13.1240 c3         1 D6F      -0.057000
     29 C43          9.8040    -4.6250    13.4130 c3         1 D6F      -0.241000
     30 C2           7.4630     0.1570     3.4120 ca         1 D6F       0.107667
     31 C19          6.6220     0.5840     2.3650 ca         1 D6F      -0.156500
     32 C18          6.4800     1.9500     2.0660 ca         1 D6F      -0.060167
     33 C15          8.1600     1.1310     4.1560 ca         1 D6F      -0.156500
     34 C16          8.0210     2.4980     3.8610 ca         1 D6F      -0.060167
     35 C17          7.1780     2.9200     2.8130 ca         1 D6F      -0.115000
     36 C21          7.0400     4.2670     2.5200 c2         1 D6F       0.113000
     37 C37          6.6700     5.1200     3.4960 c2         1 D6F      -0.152833
     38 C36          6.5310     6.4350     3.2340 c2         1 D6F       0.008667
     39 C33          7.2820     4.6990     1.2670 c2         1 D6F      -0.152833
     40 C34          7.1550     6.0050     0.9600 c2         1 D6F       0.008667
     41 N35          6.7550     6.9750     1.9300 na         1 D6F      -0.033000
     42 C38          6.7110     8.4200     1.6450 c3         1 D6F      -0.057000
     43 C42          8.0700     9.1160     1.8870 c3         1 D6F      -0.241000
     44 H41          6.5280    -9.4090    -4.4430 hc         1 D6F       0.114444
     45 H9O          6.3440    -9.1830    -2.6910 hc         1 D6F       0.114444
     46 H9P          5.6900    -7.9740    -3.8180 hc         1 D6F       0.114444
     47 H39          8.6960    -8.6100    -3.4510 h1         1 D6F       0.137333
     48 H9M          8.0470    -7.4100    -4.5700 h1         1 D6F       0.137333
     49 H31          7.1150    -5.3210    -3.7330 h4         1 D6F       0.205000
     50 H32          7.0280    -3.6530    -1.8910 ha         1 D6F       0.187000
     51 H29          8.6720    -8.2000    -1.0510 h4         1 D6F       0.205000
     52 H28          8.5900    -6.5290     0.7890 ha         1 D6F       0.187000
     53 H13          6.5590    -5.3290     1.8700 ha         1 D6F       0.147833
     54 H14          6.4690    -3.6690     3.6950 ha         1 D6F       0.159167
     55 H11          8.9490    -2.5970    -0.4880 ha         1 D6F       0.147833
     56 H10          8.8590    -0.9440     1.3430 ha         1 D6F       0.159167
     57 H9           6.2230    -0.2470     5.8080 ha         1 D6F       0.159167
     58 H8           6.3800    -0.9870     8.1580 ha         1 D6F       0.147833
     59 H5           9.1950    -3.1740     4.6810 ha         1 D6F       0.159167
     60 H6           9.3550    -3.9220     7.0280 ha         1 D6F       0.147833
     61 H27          7.5520    -4.9440     8.5910 ha         1 D6F       0.187000
     62 H26          7.7200    -5.6940    10.9560 h4         1 D6F       0.205000
     63 H23          8.4100    -0.9780     9.7870 ha         1 D6F       0.187000
     64 H24          8.5720    -1.7260    12.1530 h4         1 D6F       0.205000
     65 H40          8.0300    -3.4250    13.8120 h1         1 D6F       0.137333
     66 H9N          7.6760    -5.0810    13.3120 h1         1 D6F       0.137333
     67 H9T          9.9150    -4.9620    14.4520 hc         1 D6F       0.114444
     68 H43         10.1250    -5.4430    12.7550 hc         1 D6F       0.114444
     69 H9S         10.4820    -3.7760    13.2580 hc         1 D6F       0.114444
     70 H19          6.0630    -0.1460     1.7830 ha         1 D6F       0.159167
     71 H18          5.8150     2.2530     1.2590 ha         1 D6F       0.147833
     72 H15          8.8260     0.8280     4.9610 ha         1 D6F       0.159167
     73 H16          8.5790     3.2290     4.4450 ha         1 D6F       0.147833
     74 H37          6.4780     4.7530     4.5040 ha         1 D6F       0.187000
     75 H36          6.2380     7.1720     3.9810 h4         1 D6F       0.205000
     76 H33          7.5910     3.9960     0.4930 ha         1 D6F       0.187000
     77 H34          7.3450     6.4130    -0.0320 h4         1 D6F       0.205000
     78 H9L          5.9380     8.8840     2.2750 h1         1 D6F       0.137333
     79 H38          6.3990     8.5670     0.6010 h1         1 D6F       0.137333
     80 H42          8.0000    10.1890     1.6650 hc         1 D6F       0.114444
     81 H9Q          8.3870     9.0060     2.9320 hc         1 D6F       0.114444
     82 H9R          8.8510     8.6870     1.2460 hc         1 D6F       0.114444
@<TRIPOS>BOND
     1     1     2 1   
     2     1    44 1   
     3     1    45 1   
     4     1    46 1   
     5     2     3 1   
     6     2    47 1   
     7     2    48 1   
     8     3     4 1   
     9     3     6 1   
    10     4     5 1   
    11     4    49 1   
    12     5     8 1   
    13     5    50 1   
    14     6     7 1   
    15     6    51 1   
    16     7     8 1   
    17     7    52 1   
    18     8     9 1   
    19     9    10 ar  
    20     9    12 ar  
    21    10    11 ar  
    22    10    53 1   
    23    11    14 ar  
    24    11    54 1   
    25    12    13 ar  
    26    12    55 1   
    27    13    14 ar  
    28    13    56 1   
    29    14    15 1   
    30    15    16 1   
    31    15    30 1   
    32    16    17 ar  
    33    16    19 ar  
    34    17    18 ar  
    35    17    57 1   
    36    18    21 ar  
    37    18    58 1   
    38    19    20 ar  
    39    19    59 1   
    40    20    21 ar  
    41    20    60 1   
    42    21    22 1   
    43    22    23 1   
    44    22    25 1   
    45    23    24 1   
    46    23    61 1   
    47    24    27 1   
    48    24    62 1   
    49    25    26 1   
    50    25    63 1   
    51    26    27 1   
    52    26    64 1   
    53    27    28 1   
    54    28    29 1   
    55    28    65 1   
    56    28    66 1   
    57    29    67 1   
    58    29    68 1   
    59    29    69 1   
    60    30    31 ar  
    61    30    33 ar  
    62    31    32 ar  
    63    31    70 1   
    64    32    35 ar  
    65    32    71 1   
    66    33    34 ar  
    67    33    72 1   
    68    34    35 ar  
    69    34    73 1   
    70    35    36 1   
    71    36    37 1   
    72    36    39 1   
    73    37    38 1   
    74    37    74 1   
    75    38    41 1   
    76    38    75 1   
    77    39    40 1   
    78    39    76 1   
    79    40    41 1   
    80    40    77 1   
    81    41    42 1   
    82    42    43 1   
    83    42    78 1   
    84    42    79 1   
    85    43    80 1   
    86    43    81 1   
    87    43    82 1   
@<TRIPOS>SUBSTRUCTURE
     1 D6F         1 TEMP              0 ****  ****    0 ROOT
