@<TRIPOS>MOLECULE
D6I
   52    55     1     0     0
SMALL
bcc


@<TRIPOS>ATOM
      1 C28         -8.5080     1.8640    -0.3320 ca         1 D6I      -0.147000
      2 C27         -7.3470     2.6140    -0.1000 ca         1 D6I      -0.120000
      3 C29         -8.4600     0.4850    -0.4120 ca         1 D6I      -0.072000
      4 C26         -6.1090     2.0150     0.0620 ca         1 D6I      -0.101000
      5 C9           3.0930    -2.3590     0.4860 ca         1 D6I      -0.110000
      6 C10          1.7270    -2.5180     0.4430 ca         1 D6I      -0.239300
      7 C16         -2.7460    -1.0260    -0.0940 ca         1 D6I      -0.470600
      8 C13          2.7820    -0.1310    -0.2990 ca         1 D6I       0.348200
      9 C19         -2.0720     1.2650     1.0510 ca         1 D6I       0.709900
     10 C22         -5.6370    -1.5370    -0.1170 cc         1 D6I       0.428700
     11 C24         -7.2230    -0.1340    -0.2540 ca         1 D6I       0.060400
     12 C25         -6.0690     0.6270    -0.0170 ca         1 D6I      -0.048200
     13 C8           3.6510    -1.1330     0.1190 ca         1 D6I       0.015800
     14 C17         -3.6850    -0.0870     0.2740 ca         1 D6I       0.591800
     15 C11          0.9420    -1.4480     0.0070 ca         1 D6I       0.624200
     16 C15         -1.4110    -0.7180     0.2050 ca         1 D6I       0.741200
     17 C1           9.9380     0.6260    -0.7830 c3         1 D6I       0.149600
     18 C3           9.7110     2.7840     0.1930 c3         1 D6I       0.149600
     19 C5           7.0710     0.1260     0.1210 c3         1 D6I      -0.083400
     20 C4           7.7590     1.4540    -0.1710 c3         1 D6I       0.168800
     21 C6           5.5780     0.2400    -0.1080 c3         1 D6I       0.138400
     22 N12          1.4640    -0.2990    -0.3660 nb         1 D6I      -0.637000
     23 N18         -3.3630     1.0710     0.8410 nb         1 D6I      -0.768000
     24 N20         -1.0810     0.4390     0.7810 nb         1 D6I      -0.747000
     25 N23         -6.9130    -1.4770    -0.3010 nd         1 D6I      -0.559100
     26 N21         -5.0460    -0.3090     0.0590 na         1 D6I      -0.203100
     27 N14         -0.4440    -1.6220    -0.0840 nu         1 D6I      -0.857600
     28 N2           9.1760     1.4410     0.1390 n3         1 D6I      -0.712600
     29 H28         -9.4540     2.3760    -0.4520 ha         1 D6I       0.132000
     30 H27         -7.4180     3.6920    -0.0440 ha         1 D6I       0.131000
     31 H29         -9.3500    -0.1020    -0.5980 ha         1 D6I       0.147000
     32 H26         -5.2250     2.6040     0.2500 ha         1 D6I       0.160000
     33 H9           3.7310    -3.1700     0.8160 ha         1 D6I       0.154000
     34 H10          1.2720    -3.4520     0.7450 ha         1 D6I       0.144000
     35 H16         -3.0030    -1.9450    -0.6020 ha         1 D6I       0.153000
     36 H13          3.1450     0.8410    -0.6090 h4         1 D6I       0.027100
     37 H19         -1.7990     2.2090     1.5100 h5         1 D6I       0.054100
     38 H22         -5.0610    -2.4490    -0.0740 h5         1 D6I       0.062800
     39 H14         -0.7580    -2.5470    -0.3340 hn         1 D6I       0.449800
     40 H11C        10.9910     0.6340    -0.4980 h1         1 D6I       0.031700
     41 H12C         9.6060    -0.4120    -0.7590 h1         1 D6I       0.031700
     42 H13C         9.8700     0.9760    -1.8250 h1         1 D6I       0.031700
     43 H31C         9.6490     3.3220    -0.7670 h1         1 D6I       0.031700
     44 H32C         9.1750     3.3740     0.9390 h1         1 D6I       0.031700
     45 H33C        10.7610     2.7560     0.4860 h1         1 D6I       0.031700
     46 H51C         7.4690    -0.6690    -0.5140 hc         1 D6I       0.064200
     47 H52C         7.2640    -0.1540     1.1590 hc         1 D6I       0.064200
     48 H41C         7.5760     1.7460    -1.2210 h1         1 D6I       0.030200
     49 H42C         7.2910     2.2270     0.4450 h1         1 D6I       0.030200
     50 H61C         5.1540     1.0210     0.5340 h1         1 D6I       0.036200
     51 H62C         5.3700     0.5200    -1.1470 h1         1 D6I       0.036200
     52 O7           4.9870    -1.0160     0.1940 os         1 D6I      -0.314900
@<TRIPOS>BOND
     1     1     2 ar  
     2     1     3 ar  
     3     1    29 1   
     4     2     4 ar  
     5     2    30 1   
     6     3    11 ar  
     7     3    31 1   
     8     4    12 ar  
     9     4    32 1   
    10     5     6 ar  
    11     5    13 ar  
    12     5    33 1   
    13     6    15 ar  
    14     6    34 1   
    15     7    14 ar  
    16     7    16 ar  
    17     7    35 1   
    18     8    13 ar  
    19     8    22 ar  
    20     8    36 1   
    21     9    23 ar  
    22     9    24 ar  
    23     9    37 1   
    24    10    25 2   
    25    10    26 1   
    26    10    38 1   
    27    11    12 ar  
    28    11    25 1   
    29    12    26 1   
    30    13    52 1   
    31    14    23 ar  
    32    14    26 1   
    33    15    22 ar  
    34    15    27 1   
    35    16    24 ar  
    36    16    27 1   
    37    17    28 1   
    38    17    40 1   
    39    17    41 1   
    40    17    42 1   
    41    18    28 1   
    42    18    43 1   
    43    18    44 1   
    44    18    45 1   
    45    19    20 1   
    46    19    21 1   
    47    19    46 1   
    48    19    47 1   
    49    20    28 1   
    50    20    48 1   
    51    20    49 1   
    52    21    50 1   
    53    21    51 1   
    54    21    52 1   
    55    27    39 1   
@<TRIPOS>SUBSTRUCTURE
     1 D6I         1 TEMP              0 ****  ****    0 ROOT
