@<TRIPOS>MOLECULE
D6I
   52    55     1     0     0
SMALL
No Charge or Current Charge


@<TRIPOS>ATOM
      1 C28         -8.6300     1.3520    -1.0780 ca         1 D6I      -0.129000
      2 C27         -7.4660     2.1500    -1.1940 ca         1 D6I      -0.102000
      3 C29         -8.5730     0.0860    -0.4510 ca         1 D6I      -0.054000
      4 C26         -6.2340     1.6900    -0.6820 ca         1 D6I      -0.083000
      5 C9           2.9900    -2.1890    -0.3580 ca         1 D6I      -0.092000
      6 C10          1.5890    -2.2740    -0.2720 ca         1 D6I      -0.156000
      7 C16         -2.8830    -0.7250     0.3160 ca         1 D6I      -0.322000
      8 C13          2.7630     0.1570     0.1940 ca         1 D6I       0.282900
      9 C19         -2.3020     1.5750     1.5340 ca         1 D6I       0.183900
     10 C22         -5.7370    -1.4890     0.9770 cc         1 D6I       0.428700
     11 C24         -7.3390    -0.3540     0.0520 ca         1 D6I       0.060400
     12 C25         -6.2250     0.4320    -0.0640 ca         1 D6I      -0.048200
     13 C8           3.5980    -0.9470    -0.1200 ca         1 D6I       0.081100
     14 C17         -3.9180     0.1300     0.7430 ca         1 D6I       0.263500
     15 C11          0.8450    -1.1250     0.0530 ca         1 D6I       0.558900
     16 C15         -1.5570    -0.3390     0.5360 ca         1 D6I       0.412900
     17 C1          10.0210     0.6240    -1.2190 c3         1 D6I       0.149600
     18 C3          10.2470     2.3380     0.5210 c3         1 D6I       0.149600
     19 C5           7.1750     0.1080    -0.1480 c3         1 D6I      -0.083400
     20 C4           8.0300     1.3750     0.0720 c3         1 D6I       0.168800
     21 C6           5.6700     0.3790     0.0270 c3         1 D6I       0.161600
     22 N12          1.4130     0.0700     0.2760 nb         1 D6I      -0.637000
     23 N18         -3.6080     1.2910     1.3590 nb         1 D6I      -0.242000
     24 N20         -1.2600     0.8150     1.1560 nb         1 D6I      -0.221000
     25 N23         -7.0590    -1.5620     0.7000 nd         1 D6I      -0.559100
     26 N21         -5.2220    -0.2850     0.5070 na         1 D6I      -0.203100
     27 N14         -0.5370    -1.1930     0.1250 nu         1 D6I      -0.912800
     28 N2           9.4970     1.1450     0.0670 n3         1 D6I      -0.712600
     29 H28         -9.5750     1.7140    -1.4750 ha         1 D6I       0.114000
     30 H27         -7.5200     3.1220    -1.6810 ha         1 D6I       0.113000
     31 H29         -9.4620    -0.5330    -0.3600 ha         1 D6I       0.129000
     32 H26         -5.3300     2.2890    -0.7680 ha         1 D6I       0.142000
     33 H9           3.5900    -3.0620    -0.6040 ha         1 D6I       0.136000
     34 H10          1.0880    -3.2210    -0.4520 ha         1 D6I       0.126000
     35 H16         -3.1100    -1.6600    -0.1860 ha         1 D6I       0.135000
     36 H13          3.1780     1.1450     0.3860 h4         1 D6I       0.027100
     37 H19         -2.0680     2.5130     2.0340 h5         1 D6I       0.054100
     38 H22         -5.1370    -2.2270     1.4970 h5         1 D6I       0.062800
     39 H14         -0.8890    -2.0870    -0.2030 hn         1 D6I       0.505000
     40 H11C        11.1080     0.4810    -1.1650 h1         1 D6I       0.031700
     41 H12C         9.5760    -0.3480    -1.4670 h1         1 D6I       0.031700
     42 H13C         9.8090     1.3220    -2.0410 h1         1 D6I       0.031700
     43 H31C        10.1100     3.1760    -0.1750 h1         1 D6I       0.031700
     44 H32C         9.9060     2.6570     1.5150 h1         1 D6I       0.031700
     45 H33C        11.3210     2.1190     0.5900 h1         1 D6I       0.031700
     46 H51C         7.3430    -0.2860    -1.1570 hc         1 D6I       0.064200
     47 H52C         7.4860    -0.6650     0.5650 hc         1 D6I       0.064200
     48 H41C         7.7650     2.1160    -0.6940 h1         1 D6I       0.030200
     49 H42C         7.7400     1.8020     1.0420 h1         1 D6I       0.030200
     50 H61C         5.4790     0.7480     1.0430 h1         1 D6I       0.036200
     51 H62C         5.3490     1.1440    -0.6930 h1         1 D6I       0.036200
     52 O7           4.9750    -0.8590    -0.2040 os         1 D6I      -0.338100
@<TRIPOS>BOND
     1     1     2 ar  
     2     1     3 ar  
     3     1    29 1   
     4     2     4 ar  
     5     2    30 1   
     6     3    11 ar  
     7     3    31 1   
     8     4    12 ar  
     9     4    32 1   
    10     5     6 ar  
    11     5    13 ar  
    12     5    33 1   
    13     6    15 ar  
    14     6    34 1   
    15     7    14 ar  
    16     7    16 ar  
    17     7    35 1   
    18     8    13 ar  
    19     8    22 ar  
    20     8    36 1   
    21     9    23 ar  
    22     9    24 ar  
    23     9    37 1   
    24    10    25 2   
    25    10    26 1   
    26    10    38 1   
    27    11    12 ar  
    28    11    25 1   
    29    12    26 1   
    30    13    52 1   
    31    14    23 ar  
    32    14    26 1   
    33    15    22 ar  
    34    15    27 1   
    35    16    24 ar  
    36    16    27 1   
    37    17    28 1   
    38    17    40 1   
    39    17    41 1   
    40    17    42 1   
    41    18    28 1   
    42    18    43 1   
    43    18    44 1   
    44    18    45 1   
    45    19    20 1   
    46    19    21 1   
    47    19    46 1   
    48    19    47 1   
    49    20    28 1   
    50    20    48 1   
    51    20    49 1   
    52    21    50 1   
    53    21    51 1   
    54    21    52 1   
    55    27    39 1   
@<TRIPOS>SUBSTRUCTURE
     1 D6I         1 TEMP              0 ****  ****    0 ROOT
