@<TRIPOS>MOLECULE
D6J
   74    76     1     0     0
SMALL
No Charge or Current Charge


@<TRIPOS>ATOM
      1 O3           3.9420    -1.0890    -0.3170 o          1 D6J      -0.542500
      2 S            3.7800     0.0170     0.6280 s6         1 D6J       1.201100
      3 O2           4.8710     0.4070     1.5220 o          1 D6J      -0.542500
      4 C22          3.1470     1.4790    -0.2110 c3         1 D6J      -0.249100
      5 C23          4.1180     2.1020    -1.2050 ca         1 D6J      -0.080300
      6 C28          4.1510     1.6530    -2.5400 ca         1 D6J      -0.085000
      7 C27          5.0460     2.2290    -3.4580 ca         1 D6J      -0.110500
      8 C26          5.9120     3.2560    -3.0470 ca         1 D6J      -0.100000
      9 C25          5.8820     3.7080    -1.7170 ca         1 D6J      -0.110500
     10 C24          4.9860     3.1330    -0.7980 ca         1 D6J      -0.085000
     11 N4           2.5190    -0.3970     1.6250 n7         1 D6J      -0.921300
     12 C14          1.2910    -1.0030     1.0220 c3         1 D6J       0.169500
     13 C15          0.0490    -0.5790     1.8500 c3         1 D6J      -0.037100
     14 C16         -0.3700     0.8630     1.5790 ca         1 D6J      -0.088300
     15 C21         -1.3780     1.1440     0.6350 ca         1 D6J      -0.111500
     16 C20         -1.7620     2.4720     0.3820 ca         1 D6J      -0.109500
     17 C19         -1.1400     3.5280     1.0680 ca         1 D6J      -0.107000
     18 C18         -0.1330     3.2540     2.0090 ca         1 D6J      -0.109500
     19 C17          0.2500     1.9260     2.2640 ca         1 D6J      -0.111500
     20 C13          1.3820    -2.5710     0.8930 c          1 D6J       0.586100
     21 O1           2.2340    -3.1810     1.5350 o          1 D6J      -0.599100
     22 N3           0.4570    -3.2880     0.0830 n          1 D6J      -0.378800
     23 C12          0.5270    -4.7710     0.0640 c3         1 D6J       0.094300
     24 C2          -0.4710    -2.6290    -0.9030 c3         1 D6J       0.034700
     25 C1          -0.0770    -2.9410    -2.3760 c3         1 D6J      -0.078400
     26 C            1.3640    -2.5140    -2.7340 c3         1 D6J      -0.099100
     27 C3          -1.9830    -2.8820    -0.6180 c          1 D6J       0.577100
     28 O           -2.3880    -3.6440     0.2500 o          1 D6J      -0.587100
     29 N           -2.8510    -2.1370    -1.3890 ns         1 D6J      -0.501900
     30 C4          -4.2930    -2.0450    -1.1640 c3         1 D6J       0.145300
     31 C5          -4.6210    -0.7900    -0.3690 ca         1 D6J      -0.112300
     32 C11         -5.0440     0.3800    -1.0250 ca         1 D6J      -0.106500
     33 C10         -5.3120     1.5490    -0.2930 ca         1 D6J      -0.081500
     34 C8          -5.1720     1.5730     1.1140 ca         1 D6J      -0.136900
     35 C9          -5.4210     2.8400     1.8800 ce         1 D6J       0.662800
     36 N2          -5.7290     2.7410     3.1920 nv         1 D6J      -1.070200
     37 N1          -5.4900     3.9840     1.3360 n2         1 D6J      -0.836100
     38 C7          -4.7230     0.3970     1.7620 ca         1 D6J      -0.081500
     39 C6          -4.4590    -0.7720     1.0270 ca         1 D6J      -0.106500
     40 H221         2.2270     1.1740    -0.7170 h1         1 D6J       0.106200
     41 H222         2.8910     2.1870     0.5830 h1         1 D6J       0.106200
     42 H4           2.9800    -1.1260     2.1740 hn         1 D6J       0.523000
     43 H28          3.4840     0.8580    -2.8650 ha         1 D6J       0.118500
     44 H24          4.9700     3.4880     0.2300 ha         1 D6J       0.118500
     45 H27          5.0680     1.8780    -4.4880 ha         1 D6J       0.114500
     46 H26          6.6050     3.7020    -3.7580 ha         1 D6J       0.112000
     47 H25          6.5510     4.5040    -1.3980 ha         1 D6J       0.114500
     48 H14          1.1570    -0.6060     0.0090 h1         1 D6J       0.070700
     49 H151        -0.7900    -1.2480     1.6250 hc         1 D6J       0.070700
     50 H152         0.2580    -0.7250     2.9170 hc         1 D6J       0.070700
     51 H21         -1.8690     0.3370     0.0990 ha         1 D6J       0.112000
     52 H17          1.0330     1.7220     2.9910 ha         1 D6J       0.112000
     53 H20         -2.5420     2.6820    -0.3460 ha         1 D6J       0.122000
     54 H19         -1.4380     4.5550     0.8720 ha         1 D6J       0.115000
     55 H18          0.3510     4.0710     2.5400 ha         1 D6J       0.122000
     56 H121         0.4520    -5.1590     1.0880 h1         1 D6J       0.047367
     57 H122        -0.2930    -5.1950    -0.5290 h1         1 D6J       0.047367
     58 H123         1.4810    -5.0900    -0.3730 h1         1 D6J       0.047367
     59 H2          -0.3920    -1.5430    -0.8130 h1         1 D6J       0.073700
     60 H11C        -0.1970    -4.0130    -2.5770 hc         1 D6J       0.046200
     61 H12C        -0.7600    -2.4220    -3.0590 hc         1 D6J       0.046200
     62 HC1          1.5670    -2.7100    -3.7930 hc         1 D6J       0.048033
     63 HC2          1.5090    -1.4420    -2.5520 hc         1 D6J       0.048033
     64 HC3          2.1000    -3.0680    -2.1400 hc         1 D6J       0.048033
     65 H           -2.4420    -1.5270    -2.0860 hn         1 D6J       0.313500
     66 H41C        -4.8020    -2.0180    -2.1370 h1         1 D6J       0.066700
     67 H42C        -4.6520    -2.9340    -0.6270 h1         1 D6J       0.066700
     68 H11         -5.1590     0.3880    -2.1070 ha         1 D6J       0.121500
     69 H6          -4.1110    -1.6630     1.5460 ha         1 D6J       0.121500
     70 H10         -5.6340     2.4410    -0.8260 ha         1 D6J       0.131000
     71 H7          -4.5580     0.3830     2.8370 ha         1 D6J       0.131000
     72 H21N        -5.9750     1.8090     3.5010 hn         1 D6J       0.461000
     73 H22N        -6.3030     3.4840     3.5730 hn         1 D6J       0.461000
     74 H1          -5.4620     4.6890     2.0800 hn         1 D6J       0.374400
@<TRIPOS>BOND
     1     1     2 2   
     2     2     3 2   
     3     2     4 1   
     4     2    11 1   
     5     4     5 1   
     6     4    40 1   
     7     4    41 1   
     8     5     6 ar  
     9     5    10 ar  
    10     6     7 ar  
    11     6    43 1   
    12     7     8 ar  
    13     7    45 1   
    14     8     9 ar  
    15     8    46 1   
    16     9    10 ar  
    17     9    47 1   
    18    10    44 1   
    19    11    12 1   
    20    11    42 1   
    21    12    13 1   
    22    12    20 1   
    23    12    48 1   
    24    13    14 1   
    25    13    49 1   
    26    13    50 1   
    27    14    15 ar  
    28    14    19 ar  
    29    15    16 ar  
    30    15    51 1   
    31    16    17 ar  
    32    16    53 1   
    33    17    18 ar  
    34    17    54 1   
    35    18    19 ar  
    36    18    55 1   
    37    19    52 1   
    38    20    21 2   
    39    20    22 1   
    40    22    23 1   
    41    22    24 1   
    42    23    56 1   
    43    23    57 1   
    44    23    58 1   
    45    24    25 1   
    46    24    27 1   
    47    24    59 1   
    48    25    26 1   
    49    25    60 1   
    50    25    61 1   
    51    26    62 1   
    52    26    63 1   
    53    26    64 1   
    54    27    28 2   
    55    27    29 1   
    56    29    30 1   
    57    29    65 1   
    58    30    31 1   
    59    30    66 1   
    60    30    67 1   
    61    31    32 ar  
    62    31    39 ar  
    63    32    33 ar  
    64    32    68 1   
    65    33    34 ar  
    66    33    70 1   
    67    34    35 1   
    68    34    38 ar  
    69    35    36 1   
    70    35    37 2   
    71    36    72 1   
    72    36    73 1   
    73    37    74 1   
    74    38    39 ar  
    75    38    71 1   
    76    39    69 1   
@<TRIPOS>SUBSTRUCTURE
     1 D6J         1 TEMP              0 ****  ****    0 ROOT
