@<TRIPOS>MOLECULE
D6J
   74    76     1     0     0
SMALL
abcg2


@<TRIPOS>ATOM
      1 O3           2.9510    -0.4210    -1.2190 o          1 D6J      -0.542500
      2 S            3.2600     0.1260     0.0970 s6         1 D6J       1.201100
      3 O2           4.6300     0.0800     0.5840 o          1 D6J      -0.542500
      4 C22          2.7100     1.8390     0.1140 c3         1 D6J      -0.249100
      5 C23          3.4420     2.6130    -0.9350 ca         1 D6J      -0.080300
      6 C28          2.9320     2.7060    -2.2270 ca         1 D6J      -0.085000
      7 C27          3.6230     3.4070    -3.2050 ca         1 D6J      -0.110500
      8 C26          4.8340     4.0150    -2.9010 ca         1 D6J      -0.100000
      9 C25          5.3500     3.9220    -1.6150 ca         1 D6J      -0.110500
     10 C24          4.6580     3.2210    -0.6370 ca         1 D6J      -0.085000
     11 N4           2.3210    -0.5890     1.2360 n7         1 D6J      -0.921300
     12 C14          1.0550    -1.1960     0.8970 c3         1 D6J       0.169500
     13 C15         -0.0280    -0.7880     1.9150 c3         1 D6J      -0.037100
     14 C16         -0.2300     0.6980     1.9020 ca         1 D6J      -0.088300
     15 C21         -1.0540     1.2890     0.9470 ca         1 D6J      -0.111500
     16 C20         -1.1830     2.6690     0.8770 ca         1 D6J      -0.109500
     17 C19         -0.4880     3.4770     1.7680 ca         1 D6J      -0.107000
     18 C18          0.3270     2.8980     2.7320 ca         1 D6J      -0.109500
     19 C17          0.4540     1.5170     2.7970 ca         1 D6J      -0.111500
     20 C13          1.1820    -2.7200     0.9060 c          1 D6J       0.586100
     21 O1           1.9170    -3.2310     1.7400 o          1 D6J      -0.599100
     22 N3           0.4270    -3.4650     0.0780 n          1 D6J      -0.378800
     23 C12          0.4180    -4.9020     0.3110 c3         1 D6J       0.094300
     24 C2          -0.3830    -2.9430    -1.0030 c3         1 D6J       0.034700
     25 C1          -0.1090    -3.6570    -2.3350 c3         1 D6J      -0.078400
     26 C            1.3680    -3.6430    -2.7010 c3         1 D6J      -0.099100
     27 C3          -1.8630    -2.9370    -0.6020 c          1 D6J       0.577100
     28 O           -2.2390    -3.3620     0.4780 o          1 D6J      -0.587100
     29 N           -2.6920    -2.4060    -1.5150 ns         1 D6J      -0.501900
     30 C4          -4.0900    -2.1340    -1.2420 c3         1 D6J       0.145300
     31 C5          -4.2770    -0.7930    -0.5760 ca         1 D6J      -0.112300
     32 C11         -4.3140     0.3700    -1.3420 ca         1 D6J      -0.106500
     33 C10         -4.4530     1.6110    -0.7450 ca         1 D6J      -0.081500
     34 C8          -4.5640     1.7240     0.6390 ca         1 D6J      -0.136900
     35 C9          -4.7120     3.0720     1.2520 ce         1 D6J       0.662800
     36 N2          -5.2010     3.0860     2.5290 nv         1 D6J      -1.070200
     37 N1          -4.3360     4.0940     0.5840 n2         1 D6J      -0.836100
     38 C7          -4.5160     0.5630     1.4070 ca         1 D6J      -0.081500
     39 C6          -4.3750    -0.6800     0.8050 ca         1 D6J      -0.106500
     40 H221         1.6290     1.8350    -0.0420 h1         1 D6J       0.106200
     41 H222         2.9050     2.2070     1.1210 h1         1 D6J       0.106200
     42 H4           2.8350    -1.0020     2.0060 hn         1 D6J       0.523000
     43 H28          1.9850     2.2400    -2.4680 ha         1 D6J       0.118500
     44 H24          5.0600     3.1580     0.3660 ha         1 D6J       0.118500
     45 H27          3.2160     3.4780    -4.2050 ha         1 D6J       0.114500
     46 H26          5.3710     4.5650    -3.6630 ha         1 D6J       0.112000
     47 H25          6.2920     4.3960    -1.3720 ha         1 D6J       0.114500
     48 H14          0.7590    -0.8060    -0.0750 h1         1 D6J       0.070700
     49 H151        -0.9570    -1.3050     1.6640 hc         1 D6J       0.070700
     50 H152         0.2700    -1.1330     2.9070 hc         1 D6J       0.070700
     51 H21         -1.6090     0.6650     0.2540 ha         1 D6J       0.112000
     52 H17          1.0950     1.0690     3.5470 ha         1 D6J       0.112000
     53 H20         -1.8480     3.1150     0.1500 ha         1 D6J       0.122000
     54 H19         -0.5910     4.5530     1.7180 ha         1 D6J       0.115000
     55 H18          0.8680     3.5210     3.4330 ha         1 D6J       0.122000
     56 H121         0.1890    -5.1220     1.3510 h1         1 D6J       0.047367
     57 H122        -0.3460    -5.3660    -0.3030 h1         1 D6J       0.047367
     58 H123         1.3780    -5.3560     0.0610 h1         1 D6J       0.047367
     59 H2          -0.1060    -1.9030    -1.1720 h1         1 D6J       0.073700
     60 H11C        -0.4890    -4.6800    -2.3130 hc         1 D6J       0.046200
     61 H12C        -0.6700    -3.1440    -3.1180 hc         1 D6J       0.046200
     62 HC1          1.5110    -4.0400    -3.7060 hc         1 D6J       0.048033
     63 HC2          1.7680    -2.6280    -2.6840 hc         1 D6J       0.048033
     64 HC3          1.9660    -4.2470    -2.0210 hc         1 D6J       0.048033
     65 H           -2.3030    -1.9870    -2.3440 hn         1 D6J       0.313500
     66 H41C        -4.6230    -2.1610    -2.1920 h1         1 D6J       0.066700
     67 H42C        -4.4920    -2.9340    -0.6240 h1         1 D6J       0.066700
     68 H11         -4.2460     0.3050    -2.4220 ha         1 D6J       0.121500
     69 H6          -4.3390    -1.5680     1.4240 ha         1 D6J       0.121500
     70 H10         -4.4860     2.5030    -1.3550 ha         1 D6J       0.131000
     71 H7          -4.5670     0.6140     2.4860 ha         1 D6J       0.131000
     72 H21N        -5.8340     2.3530     2.8040 hn         1 D6J       0.461000
     73 H22N        -5.4390     3.9850     2.9180 hn         1 D6J       0.461000
     74 H1          -4.5070     4.9530     1.1000 hn         1 D6J       0.374400
@<TRIPOS>BOND
     1     1     2 2   
     2     2     3 2   
     3     2     4 1   
     4     2    11 1   
     5     4     5 1   
     6     4    40 1   
     7     4    41 1   
     8     5     6 ar  
     9     5    10 ar  
    10     6     7 ar  
    11     6    43 1   
    12     7     8 ar  
    13     7    45 1   
    14     8     9 ar  
    15     8    46 1   
    16     9    10 ar  
    17     9    47 1   
    18    10    44 1   
    19    11    12 1   
    20    11    42 1   
    21    12    13 1   
    22    12    20 1   
    23    12    48 1   
    24    13    14 1   
    25    13    49 1   
    26    13    50 1   
    27    14    15 ar  
    28    14    19 ar  
    29    15    16 ar  
    30    15    51 1   
    31    16    17 ar  
    32    16    53 1   
    33    17    18 ar  
    34    17    54 1   
    35    18    19 ar  
    36    18    55 1   
    37    19    52 1   
    38    20    21 2   
    39    20    22 1   
    40    22    23 1   
    41    22    24 1   
    42    23    56 1   
    43    23    57 1   
    44    23    58 1   
    45    24    25 1   
    46    24    27 1   
    47    24    59 1   
    48    25    26 1   
    49    25    60 1   
    50    25    61 1   
    51    26    62 1   
    52    26    63 1   
    53    26    64 1   
    54    27    28 2   
    55    27    29 1   
    56    29    30 1   
    57    29    65 1   
    58    30    31 1   
    59    30    66 1   
    60    30    67 1   
    61    31    32 ar  
    62    31    39 ar  
    63    32    33 ar  
    64    32    68 1   
    65    33    34 ar  
    66    33    70 1   
    67    34    35 1   
    68    34    38 ar  
    69    35    36 1   
    70    35    37 2   
    71    36    72 1   
    72    36    73 1   
    73    37    74 1   
    74    38    39 ar  
    75    38    71 1   
    76    39    69 1   
@<TRIPOS>SUBSTRUCTURE
     1 D6J         1 TEMP              0 ****  ****    0 ROOT
