@<TRIPOS>MOLECULE
D6K
   24    24     1     0     0
SMALL
bcc


@<TRIPOS>ATOM
      1 CAA          2.6190     1.1900     0.1630 c3         1 D6K      -0.088100
      2 CAC         -1.9920     1.5300    -0.5210 c3         1 D6K      -0.108600
      3 CAE         -1.4010     0.2610     1.5500 c3         1 D6K      -0.108600
      4 CAH          1.3530    -0.8280    -0.6610 c6         1 D6K      -0.132400
      5 CAI          1.3730     0.3430     0.3060 c6         1 D6K       0.154100
      6 CAK         -1.0020     0.5600     0.1030 c6         1 D6K       0.363600
      7 CAL          0.0060    -1.5300    -0.6250 c6         1 D6K       0.347900
      8 OAF         -0.0500    -2.3150     0.5290 oh         1 D6K      -0.619800
      9 OAG          0.2560     1.1790     0.0290 os         1 D6K      -0.431600
     10 OAJ         -1.0470    -0.6020    -0.7110 os         1 D6K      -0.466600
     11 H1           2.7150     1.5830    -0.8510 hc         1 D6K       0.044033
     12 H2           2.6100     2.0300     0.8590 hc         1 D6K       0.044033
     13 H3           3.5050     0.5910     0.3770 hc         1 D6K       0.044033
     14 H4          -2.0310     2.4570     0.0500 hc         1 D6K       0.050033
     15 H5          -1.7090     1.7680    -1.5480 hc         1 D6K       0.050033
     16 H6          -2.9940     1.1010    -0.5300 hc         1 D6K       0.050033
     17 H7          -2.3850    -0.2080     1.5750 hc         1 D6K       0.050033
     18 H8          -0.7060    -0.4020     2.0610 hc         1 D6K       0.050033
     19 H9          -1.4600     1.1920     2.1140 hc         1 D6K       0.050033
     20 H11          2.1500    -1.5380    -0.4350 hc         1 D6K       0.066200
     21 H12          1.3210    -0.0290     1.3380 h1         1 D6K       0.048700
     22 H13         -0.1180    -2.1550    -1.5170 h2         1 D6K       0.060700
     23 H14         -0.8770    -2.8090     0.5310 ho         1 D6K       0.416000
     24 H10          1.5260    -0.4590    -1.6760 hc         1 D6K       0.066200
@<TRIPOS>BOND
     1     1     5 1   
     2     1    11 1   
     3     1    12 1   
     4     1    13 1   
     5     2     6 1   
     6     2    14 1   
     7     2    15 1   
     8     2    16 1   
     9     3     6 1   
    10     3    17 1   
    11     3    18 1   
    12     3    19 1   
    13     4     5 1   
    14     4     7 1   
    15     4    20 1   
    16     4    24 1   
    17     5     9 1   
    18     5    21 1   
    19     6     9 1   
    20     6    10 1   
    21     7     8 1   
    22     7    10 1   
    23     7    22 1   
    24     8    23 1   
@<TRIPOS>SUBSTRUCTURE
     1 D6K         1 TEMP              0 ****  ****    0 ROOT
