@<TRIPOS>MOLECULE
D6K
   24    24     1     0     0
SMALL
No Charge or Current Charge


@<TRIPOS>ATOM
      1 CAA          2.6730     1.2100     0.1600 c3         1 D6K      -0.088100
      2 CAC         -2.0450     1.5470    -0.5040 c3         1 D6K      -0.108600
      3 CAE         -1.4050     0.2300     1.5620 c3         1 D6K      -0.108600
      4 CAH          1.3960    -0.8570    -0.6730 c6         1 D6K      -0.132400
      5 CAI          1.3990     0.3430     0.2960 c6         1 D6K       0.177300
      6 CAK         -1.0160     0.5520     0.0840 c6         1 D6K       0.410000
      7 CAL          0.0280    -1.5670    -0.6480 c6         1 D6K       0.394300
      8 OAF         -0.1600    -2.3080     0.5450 oh         1 D6K      -0.682000
      9 OAG          0.2730     1.1920    -0.0020 os         1 D6K      -0.478000
     10 OAJ         -1.0440    -0.6140    -0.7760 os         1 D6K      -0.513000
     11 H1           2.7760     1.6140    -0.8550 hc         1 D6K       0.044033
     12 H2           2.6500     2.0550     0.8590 hc         1 D6K       0.044033
     13 H3           3.5720     0.6230     0.3800 hc         1 D6K       0.044033
     14 H4          -2.0540     2.4880     0.0580 hc         1 D6K       0.050033
     15 H5          -1.8090     1.7840    -1.5480 hc         1 D6K       0.050033
     16 H6          -3.0580     1.1300    -0.4760 hc         1 D6K       0.050033
     17 H7          -2.3400    -0.3410     1.6010 hc         1 D6K       0.050033
     18 H8          -0.6460    -0.3410     2.1040 hc         1 D6K       0.050033
     19 H9          -1.5660     1.1540     2.1280 hc         1 D6K       0.050033
     20 H11          2.1940    -1.5640    -0.4100 hc         1 D6K       0.066200
     21 H12          1.3380    -0.0100     1.3340 h1         1 D6K       0.048700
     22 H13         -0.0170    -2.2610    -1.5020 h2         1 D6K       0.060700
     23 H14         -1.0810    -2.6370     0.4900 ho         1 D6K       0.455000
     24 H10          1.6030    -0.5140    -1.6950 hc         1 D6K       0.066200
@<TRIPOS>BOND
     1     1     5 1   
     2     1    11 1   
     3     1    12 1   
     4     1    13 1   
     5     2     6 1   
     6     2    14 1   
     7     2    15 1   
     8     2    16 1   
     9     3     6 1   
    10     3    17 1   
    11     3    18 1   
    12     3    19 1   
    13     4     5 1   
    14     4     7 1   
    15     4    20 1   
    16     4    24 1   
    17     5     9 1   
    18     5    21 1   
    19     6     9 1   
    20     6    10 1   
    21     7     8 1   
    22     7    10 1   
    23     7    22 1   
    24     8    23 1   
@<TRIPOS>SUBSTRUCTURE
     1 D6K         1 TEMP              0 ****  ****    0 ROOT
