@<TRIPOS>MOLECULE
D6M
   64    63     1     0     0
SMALL
No Charge or Current Charge


@<TRIPOS>ATOM
      1 O01          4.8450    -0.6690     1.7030 o          1 D6M      -0.657100
      2 C02          4.5000    -0.3280     0.5790 c          1 D6M       0.596100
      3 N03          5.2290     0.5500    -0.1960 ns         1 D6M      -0.430900
      4 C04          6.5170     1.1790     0.1880 c3         1 D6M      -0.044300
      5 C05          7.7370     0.4370    -0.4200 c3         1 D6M      -0.055400
      6 C06          7.9050    -1.0320     0.0520 c3         1 D6M      -0.200400
      7 C07          9.2020    -1.6300    -0.5260 c          1 D6M       0.712000
      8 O08          9.1510    -2.1740    -1.6190 o          1 D6M      -0.762500
      9 C09          6.5160     2.6880    -0.2120 c          1 D6M       0.717000
     10 O10          6.2240     2.9890    -1.3620 o          1 D6M      -0.745500
     11 O11          6.7240     3.5180     0.6620 o          1 D6M      -0.745500
     12 C12          3.2290    -0.8690    -0.0900 c3         1 D6M      -0.160400
     13 C13          1.9550    -0.2370     0.5170 c3         1 D6M      -0.062400
     14 C14          0.6540    -0.7530    -0.1370 c3         1 D6M      -0.077400
     15 C15         -0.6190    -0.1230     0.4680 c3         1 D6M      -0.075400
     16 C16         -1.9190    -0.6390    -0.1860 c3         1 D6M      -0.074400
     17 C17         -3.1920    -0.0090     0.4190 c3         1 D6M      -0.075400
     18 C18         -4.4920    -0.5260    -0.2360 c3         1 D6M      -0.073400
     19 C19         -5.7660     0.1040     0.3700 c3         1 D6M      -0.075400
     20 C20         -7.0660    -0.4130    -0.2850 c3         1 D6M      -0.074400
     21 C21         -8.3390     0.2170     0.3210 c3         1 D6M      -0.074400
     22 C22         -9.6390    -0.3000    -0.3340 c3         1 D6M      -0.074400
     23 C23        -10.9130     0.3300     0.2720 c3         1 D6M      -0.074400
     24 C24        -12.2120    -0.1880    -0.3830 c3         1 D6M      -0.075400
     25 C25        -13.4860     0.4420     0.2230 c3         1 D6M      -0.075400
     26 C26        -14.7830    -0.0740    -0.4300 c3         1 D6M      -0.088100
     27 OXT         10.2360    -1.4900     0.1080 o          1 D6M      -0.762500
     28 H03          4.8450     0.7770    -1.1050 hn         1 D6M       0.293500
     29 H121         3.2460    -0.6480    -1.1640 hc         1 D6M       0.040200
     30 H122         3.1840    -1.9540     0.0630 hc         1 D6M       0.040200
     31 H04          6.6070     1.1450     1.2810 h1         1 D6M       0.056700
     32 H051         7.6660     0.4580    -1.5150 hc         1 D6M       0.049200
     33 H052         8.6450     0.9950    -0.1570 hc         1 D6M       0.049200
     34 H061         7.9570    -0.9900     1.1470 hc         1 D6M       0.009700
     35 H062         7.0320    -1.5770    -0.3280 hc         1 D6M       0.009700
     36 H131         1.9240    -0.4470     1.5940 hc         1 D6M       0.051200
     37 H132         2.0060     0.8540     0.4060 hc         1 D6M       0.051200
     38 H141         0.6840    -0.5410    -1.2140 hc         1 D6M       0.029700
     39 H142         0.6040    -1.8430    -0.0260 hc         1 D6M       0.029700
     40 H151        -0.6490    -0.3340     1.5440 hc         1 D6M       0.036700
     41 H152        -0.5690     0.9680     0.3570 hc         1 D6M       0.036700
     42 H161        -1.8890    -0.4270    -1.2630 hc         1 D6M       0.033700
     43 H162        -1.9690    -1.7300    -0.0760 hc         1 D6M       0.033700
     44 H171        -3.2220    -0.2210     1.4950 hc         1 D6M       0.035700
     45 H172        -3.1420     1.0810     0.3080 hc         1 D6M       0.035700
     46 H181        -4.4620    -0.3140    -1.3120 hc         1 D6M       0.035700
     47 H182        -4.5420    -1.6160    -0.1250 hc         1 D6M       0.035700
     48 H191        -5.7960    -0.1080     1.4460 hc         1 D6M       0.035700
     49 H192        -5.7160     1.1950     0.2590 hc         1 D6M       0.035700
     50 H201        -7.0360    -0.2010    -1.3610 hc         1 D6M       0.035700
     51 H202        -7.1160    -1.5030    -0.1740 hc         1 D6M       0.035700
     52 H211        -8.3690     0.0050     1.3970 hc         1 D6M       0.036700
     53 H212        -8.2890     1.3070     0.2100 hc         1 D6M       0.036700
     54 H221        -9.6090    -0.0880    -1.4100 hc         1 D6M       0.036200
     55 H222        -9.6890    -1.3910    -0.2230 hc         1 D6M       0.036200
     56 H231       -10.9420     0.1180     1.3480 hc         1 D6M       0.036200
     57 H232       -10.8630     1.4200     0.1610 hc         1 D6M       0.036200
     58 H241       -12.1830     0.0240    -1.4590 hc         1 D6M       0.036700
     59 H242       -12.2620    -1.2780    -0.2720 hc         1 D6M       0.036700
     60 H251       -13.5200     0.2310     1.2990 hc         1 D6M       0.035700
     61 H252       -13.4410     1.5330     0.1120 hc         1 D6M       0.035700
     62 H261       -14.8750    -1.1600    -0.3050 hc         1 D6M       0.029367
     63 H262       -15.6580     0.4000     0.0310 hc         1 D6M       0.029367
     64 H263       -14.7950     0.1540    -1.5030 hc         1 D6M       0.029367
@<TRIPOS>BOND
     1     1     2 2   
     2     2     3 1   
     3     2    12 1   
     4     3     4 1   
     5     3    28 1   
     6     4     5 1   
     7     4     9 1   
     8     4    31 1   
     9     5     6 1   
    10     5    32 1   
    11     5    33 1   
    12     6     7 1   
    13     6    34 1   
    14     6    35 1   
    15     7     8 1   
    16     7    27 1   
    17     9    10 1   
    18     9    11 1   
    19    12    13 1   
    20    12    29 1   
    21    12    30 1   
    22    13    14 1   
    23    13    36 1   
    24    13    37 1   
    25    14    15 1   
    26    14    38 1   
    27    14    39 1   
    28    15    16 1   
    29    15    40 1   
    30    15    41 1   
    31    16    17 1   
    32    16    42 1   
    33    16    43 1   
    34    17    18 1   
    35    17    44 1   
    36    17    45 1   
    37    18    19 1   
    38    18    46 1   
    39    18    47 1   
    40    19    20 1   
    41    19    48 1   
    42    19    49 1   
    43    20    21 1   
    44    20    50 1   
    45    20    51 1   
    46    21    22 1   
    47    21    52 1   
    48    21    53 1   
    49    22    23 1   
    50    22    54 1   
    51    22    55 1   
    52    23    24 1   
    53    23    56 1   
    54    23    57 1   
    55    24    25 1   
    56    24    58 1   
    57    24    59 1   
    58    25    26 1   
    59    25    60 1   
    60    25    61 1   
    61    26    62 1   
    62    26    63 1   
    63    26    64 1   
@<TRIPOS>SUBSTRUCTURE
     1 D6M         1 TEMP              0 ****  ****    0 ROOT
