@<TRIPOS>MOLECULE
D6M
   64    63     1     0     0
SMALL
bcc


@<TRIPOS>ATOM
      1 O01          4.2960     0.9490     1.6750 o          1 D6M      -0.657100
      2 C02          4.3360     0.4500     0.5550 c          1 D6M       0.663100
      3 N03          5.4760     0.2740    -0.1260 ns         1 D6M      -0.497900
      4 C04          6.7620     0.7520     0.3240 c3         1 D6M      -0.044300
      5 C05          7.8740    -0.1120    -0.2730 c3         1 D6M      -0.055400
      6 C06          7.7990    -1.5690     0.1540 c3         1 D6M      -0.200400
      7 C07          8.9210    -2.4800    -0.3730 c          1 D6M       0.922600
      8 O08          9.7420    -1.9940    -1.1760 o          1 D6M      -0.867800
      9 C09          6.9870     2.2520     0.0060 c          1 D6M       0.927600
     10 O10          6.1550     2.8270    -0.7160 o          1 D6M      -0.850800
     11 O11          8.0160     2.7490     0.5110 o          1 D6M      -0.850800
     12 C12          3.0950    -0.0840    -0.1350 c3         1 D6M      -0.160400
     13 C13          1.8000     0.5440     0.3570 c3         1 D6M      -0.062400
     14 C14          0.5730    -0.0750    -0.3000 c3         1 D6M      -0.077400
     15 C15         -0.7350     0.5030     0.2230 c3         1 D6M      -0.075400
     16 C16         -1.9720    -0.1360    -0.3940 c3         1 D6M      -0.074400
     17 C17         -3.2740     0.4210     0.1670 c3         1 D6M      -0.075400
     18 C18         -4.5200    -0.2320    -0.4170 c3         1 D6M      -0.073400
     19 C19         -5.8120     0.3180     0.1750 c3         1 D6M      -0.075400
     20 C20         -7.0680    -0.3410    -0.3810 c3         1 D6M      -0.074400
     21 C21         -8.3500     0.2080     0.2320 c3         1 D6M      -0.074400
     22 C22         -9.6140    -0.4510    -0.3070 c3         1 D6M      -0.074400
     23 C23        -10.8890     0.1010     0.3180 c3         1 D6M      -0.074400
     24 C24        -12.1570    -0.5520    -0.2150 c3         1 D6M      -0.075400
     25 C25        -13.4300     0.0050     0.4120 c3         1 D6M      -0.075400
     26 C26        -14.6940    -0.6500    -0.1260 c3         1 D6M      -0.088100
     27 OXT          8.9110    -3.6560     0.0490 o          1 D6M      -0.867800
     28 H03          5.4060    -0.0300    -1.0830 hn         1 D6M       0.293500
     29 H121         3.1860     0.0380    -1.2180 hc         1 D6M       0.040200
     30 H122         3.0620    -1.1650     0.0390 hc         1 D6M       0.040200
     31 H04          6.7940     0.6380     1.4120 h1         1 D6M       0.056700
     32 H051         7.8460    -0.0370    -1.3650 hc         1 D6M       0.049200
     33 H052         8.8290     0.3150     0.0350 hc         1 D6M       0.049200
     34 H061         7.7950    -1.6290     1.2490 hc         1 D6M       0.009700
     35 H062         6.8420    -2.0050    -0.1530 hc         1 D6M       0.009700
     36 H131         1.7250     0.4260     1.4410 hc         1 D6M       0.051200
     37 H132         1.8120     1.6210     0.1670 hc         1 D6M       0.051200
     38 H141         0.6260     0.0610    -1.3850 hc         1 D6M       0.029700
     39 H142         0.5820    -1.1580    -0.1320 hc         1 D6M       0.029700
     40 H151        -0.7720     0.3800     1.3120 hc         1 D6M       0.036700
     41 H152        -0.7550     1.5840     0.0430 hc         1 D6M       0.036700
     42 H161        -1.9520     0.0010    -1.4810 hc         1 D6M       0.033700
     43 H162        -1.9400    -1.2190    -0.2270 hc         1 D6M       0.033700
     44 H171        -3.2790     0.2960     1.2550 hc         1 D6M       0.035700
     45 H172        -3.3130     1.5020    -0.0110 hc         1 D6M       0.035700
     46 H181        -4.5290    -0.0970    -1.5040 hc         1 D6M       0.035700
     47 H182        -4.4750    -1.3130    -0.2480 hc         1 D6M       0.035700
     48 H191        -5.7910     0.1920     1.2630 hc         1 D6M       0.035700
     49 H192        -5.8610     1.3980    -0.0010 hc         1 D6M       0.035700
     50 H201        -7.0990    -0.2090    -1.4690 hc         1 D6M       0.035700
     51 H202        -7.0170    -1.4220    -0.2100 hc         1 D6M       0.035700
     52 H211        -8.3120     0.0810     1.3200 hc         1 D6M       0.036700
     53 H212        -8.4020     1.2880     0.0580 hc         1 D6M       0.036700
     54 H221        -9.6560    -0.3220    -1.3940 hc         1 D6M       0.036200
     55 H222        -9.5620    -1.5310    -0.1340 hc         1 D6M       0.036200
     56 H231       -10.8440    -0.0280     1.4050 hc         1 D6M       0.036200
     57 H232       -10.9380     1.1820     0.1450 hc         1 D6M       0.036200
     58 H241       -12.2040    -0.4250    -1.3020 hc         1 D6M       0.036700
     59 H242       -12.1110    -1.6330    -0.0410 hc         1 D6M       0.036700
     60 H251       -13.3840    -0.1240     1.4980 hc         1 D6M       0.035700
     61 H252       -13.4740     1.0840     0.2380 hc         1 D6M       0.035700
     62 H261       -14.6950    -1.7250     0.0660 hc         1 D6M       0.029367
     63 H262       -15.5900    -0.2320     0.3350 hc         1 D6M       0.029367
     64 H263       -14.7820    -0.5110    -1.2060 hc         1 D6M       0.029367
@<TRIPOS>BOND
     1     1     2 2   
     2     2     3 1   
     3     2    12 1   
     4     3     4 1   
     5     3    28 1   
     6     4     5 1   
     7     4     9 1   
     8     4    31 1   
     9     5     6 1   
    10     5    32 1   
    11     5    33 1   
    12     6     7 1   
    13     6    34 1   
    14     6    35 1   
    15     7     8 1   
    16     7    27 1   
    17     9    10 1   
    18     9    11 1   
    19    12    13 1   
    20    12    29 1   
    21    12    30 1   
    22    13    14 1   
    23    13    36 1   
    24    13    37 1   
    25    14    15 1   
    26    14    38 1   
    27    14    39 1   
    28    15    16 1   
    29    15    40 1   
    30    15    41 1   
    31    16    17 1   
    32    16    42 1   
    33    16    43 1   
    34    17    18 1   
    35    17    44 1   
    36    17    45 1   
    37    18    19 1   
    38    18    46 1   
    39    18    47 1   
    40    19    20 1   
    41    19    48 1   
    42    19    49 1   
    43    20    21 1   
    44    20    50 1   
    45    20    51 1   
    46    21    22 1   
    47    21    52 1   
    48    21    53 1   
    49    22    23 1   
    50    22    54 1   
    51    22    55 1   
    52    23    24 1   
    53    23    56 1   
    54    23    57 1   
    55    24    25 1   
    56    24    58 1   
    57    24    59 1   
    58    25    26 1   
    59    25    60 1   
    60    25    61 1   
    61    26    62 1   
    62    26    63 1   
    63    26    64 1   
@<TRIPOS>SUBSTRUCTURE
     1 D6M         1 TEMP              0 ****  ****    0 ROOT
