@<TRIPOS>MOLECULE
D6O
   14    13     1     0     0
SMALL
bcc


@<TRIPOS>ATOM
      1 OB          26.9260    19.7360    59.5040 o          1 D6O      -0.785800
      2 CG          27.2640    20.4240    60.5030 c          1 D6O       0.914800
      3 NE1         26.3580    17.3680    60.2990 ns         1 D6O      -0.647500
      4 CZ          26.5150    17.3200    61.6580 c          1 D6O       0.685300
      5 OH          26.3270    16.3160    62.3220 o          1 D6O      -0.650100
      6 CE2         26.9330    18.5730    62.3360 ce         1 D6O      -0.265200
      7 CD2         27.2300    19.7990    61.8880 cf         1 D6O      -0.161200
      8 CG1         25.9800    16.2900    59.5580 c          1 D6O       0.670900
      9 OB1         25.8410    16.3270    58.3550 o          1 D6O      -0.609100
     10 OB2         27.6370    21.6010    60.4800 o          1 D6O      -0.785800
     11 H1          26.5570    18.3090    59.8390 hn         1 D6O       0.418500
     12 H2          27.0060    18.4240    63.4080 ha         1 D6O       0.109000
     13 H3          27.5120    20.5030    62.6630 ha         1 D6O       0.105000
     14 H4          25.8100    15.3770    60.1420 h5         1 D6O       0.001200
@<TRIPOS>BOND
     1     1     2 1   
     2     2     7 1   
     3     2    10 1   
     4     3     4 1   
     5     3     8 1   
     6     3    11 1   
     7     4     5 2   
     8     4     6 1   
     9     6     7 2   
    10     6    12 1   
    11     7    13 1   
    12     8     9 2   
    13     8    14 1   
@<TRIPOS>SUBSTRUCTURE
     1 D6O         1 TEMP              0 ****  ****    0 ROOT
