@<TRIPOS>MOLECULE
D6O
   14    13     1     0     0
SMALL
No Charge or Current Charge


@<TRIPOS>ATOM
      1 OB          26.9630    19.7730    59.5400 o          1 D6O      -0.680500
      2 CG          27.2640    20.4470    60.5090 c          1 D6O       0.704200
      3 NE1         26.3530    17.2950    60.3450 ns         1 D6O      -0.513500
      4 CZ          26.5080    17.3030    61.6860 c          1 D6O       0.618300
      5 OH          26.2980    16.2980    62.3460 o          1 D6O      -0.650100
      6 CE2         26.9430    18.5750    62.3490 ce         1 D6O      -0.315200
      7 CD2         27.2490    19.8420    61.8820 cf         1 D6O      -0.211200
      8 CG1         25.9720    16.2770    59.5340 c          1 D6O       0.603900
      9 OB1         25.8790    16.4330    58.3250 o          1 D6O      -0.609100
     10 OB2         27.5880    21.6210    60.4310 o          1 D6O      -0.680500
     11 H1          26.5470    18.1700    59.8770 hn         1 D6O       0.418500
     12 H2          27.0290    18.4450    63.4270 ha         1 D6O       0.159000
     13 H3          27.5400    20.5620    62.6460 ha         1 D6O       0.155000
     14 H4          25.7620    15.3260    60.0590 h5         1 D6O       0.001200
@<TRIPOS>BOND
     1     1     2 1   
     2     2     7 1   
     3     2    10 1   
     4     3     4 1   
     5     3     8 1   
     6     3    11 1   
     7     4     5 2   
     8     4     6 1   
     9     6     7 2   
    10     6    12 1   
    11     7    13 1   
    12     8     9 2   
    13     8    14 1   
@<TRIPOS>SUBSTRUCTURE
     1 D6O         1 TEMP              0 ****  ****    0 ROOT
