@<TRIPOS>MOLECULE
D6P
   28    27     1     0     0
SMALL
No Charge or Current Charge


@<TRIPOS>ATOM
      1 C1          -0.0190    -0.2580     5.3890 c3         1 D6P       0.158600
      2 C2           0.5970    -0.0340     3.9930 c3         1 D6P      -0.117400
      3 C3          -0.4230    -0.1730     2.8350 c3         1 D6P       0.130300
      4 C4           0.2450    -0.0700     1.4270 c3         1 D6P       0.109300
      5 C5          -0.6750    -0.5500     0.2570 c3         1 D6P       0.187500
      6 C6          -0.0300    -0.3770    -1.0950 c2         1 D6P      -0.349200
      7 O1           1.0070    -0.1860     6.3840 oh         1 D6P      -0.668000
      8 O3          -1.4060     0.8660     2.9460 oh         1 D6P      -0.727000
      9 O4           0.6470     1.2990     1.1920 oh         1 D6P      -0.651000
     10 O5          -0.9800    -1.9360     0.3820 oh         1 D6P      -0.741000
     11 C7          -0.5590     0.2950    -2.1400 c2         1 D6P      -0.191600
     12 P            0.1740     0.5600    -3.8520 p5         1 D6P       1.141100
     13 O1P          0.4940    -0.7930    -4.3890 o          1 D6P      -0.931500
     14 O2P         -0.7740     1.3440    -4.6920 o          1 D6P      -0.931500
     15 O3P          1.4880     1.2300    -3.6390 o          1 D6P      -0.931500
     16 H11         -0.5050    -1.2430     5.4170 h1         1 D6P       0.015700
     17 H12         -0.7860     0.5040     5.5820 h1         1 D6P       0.015700
     18 H21          1.0650     0.9570     3.9580 hc         1 D6P       0.061200
     19 H22          1.3980    -0.7680     3.8440 hc         1 D6P       0.061200
     20 H3          -0.8970    -1.1620     2.9220 h1         1 D6P       0.080700
     21 H4           1.1310    -0.7210     1.4250 h1         1 D6P       0.076700
     22 H5          -1.6050     0.0370     0.2870 h1         1 D6P       0.043700
     23 H6           0.9490    -0.8520    -1.1980 ha         1 D6P       0.195000
     24 HO1          0.5710    -0.3250     7.2530 ho         1 D6P       0.425000
     25 HO3         -1.0210     1.6000     2.4090 ho         1 D6P       0.487000
     26 HO4          0.8440     1.3640     0.2310 ho         1 D6P       0.434000
     27 HO5         -1.3450    -2.2040    -0.4920 ho         1 D6P       0.503000
     28 H7          -1.5310     0.7750    -2.0630 ha         1 D6P       0.115000
@<TRIPOS>BOND
     1     1     2 1   
     2     1     7 1   
     3     1    16 1   
     4     1    17 1   
     5     2     3 1   
     6     2    18 1   
     7     2    19 1   
     8     3     4 1   
     9     3     8 1   
    10     3    20 1   
    11     4     5 1   
    12     4     9 1   
    13     4    21 1   
    14     5     6 1   
    15     5    10 1   
    16     5    22 1   
    17     6    11 2   
    18     6    23 1   
    19     7    24 1   
    20     8    25 1   
    21     9    26 1   
    22    10    27 1   
    23    11    12 1   
    24    11    28 1   
    25    12    13 1   
    26    12    14 1   
    27    12    15 1   
@<TRIPOS>SUBSTRUCTURE
     1 D6P         1 TEMP              0 ****  ****    0 ROOT
