@<TRIPOS>MOLECULE
D6P
   28    27     1     0     0
SMALL
abcg2


@<TRIPOS>ATOM
      1 C1           0.0070    -0.5340     5.1600 c3         1 D6P       0.158600
      2 C2           0.6090    -0.2980     3.7870 c3         1 D6P      -0.117400
      3 C3          -0.4400     0.0570     2.7390 c3         1 D6P       0.130300
      4 C4           0.1810     0.1830     1.3410 c3         1 D6P       0.109300
      5 C5          -0.8830     0.2310     0.2220 c3         1 D6P       0.187500
      6 C6          -0.2470     0.3940    -1.1320 c2         1 D6P      -0.349200
      7 O1           1.0350    -0.9390     6.0390 oh         1 D6P      -0.668000
      8 O3          -1.1640     1.2250     3.0820 oh         1 D6P      -0.727000
      9 O4           1.0520     1.2920     1.2730 oh         1 D6P      -0.651000
     10 O5          -1.7370    -0.8830     0.3070 oh         1 D6P      -0.741000
     11 C7          -0.4400    -0.3820    -2.1970 c2         1 D6P      -0.191600
     12 P            0.3820    -0.1570    -3.8310 p5         1 D6P       1.141100
     13 O1P          1.1960    -1.4430    -4.0160 o          1 D6P      -0.931500
     14 O2P         -0.7830    -0.0280    -4.8190 o          1 D6P      -0.931500
     15 O3P          1.2340     1.1100    -3.6980 o          1 D6P      -0.931500
     16 H11         -0.7760    -1.3000     5.0810 h1         1 D6P       0.015700
     17 H12         -0.4800     0.3810     5.5160 h1         1 D6P       0.015700
     18 H21          1.3710     0.4880     3.8440 hc         1 D6P       0.061200
     19 H22          1.1200    -1.2100     3.4630 hc         1 D6P       0.061200
     20 H3          -1.1770    -0.7500     2.7070 h1         1 D6P       0.080700
     21 H4           0.8070    -0.7020     1.1690 h1         1 D6P       0.076700
     22 H5          -1.5230     1.1040     0.4120 h1         1 D6P       0.043700
     23 H6           0.4330     1.2350    -1.2300 ha         1 D6P       0.195000
     24 HO1          0.6610    -1.0160     6.9210 ho         1 D6P       0.425000
     25 HO3         -0.5340     1.9100     3.3330 ho         1 D6P       0.487000
     26 HO4          0.5260     2.0950     1.1950 ho         1 D6P       0.434000
     27 HO5         -1.2430    -1.6600     0.0190 ho         1 D6P       0.503000
     28 H7          -1.1310    -1.2220    -2.1150 ha         1 D6P       0.115000
@<TRIPOS>BOND
     1     1     2 1   
     2     1     7 1   
     3     1    16 1   
     4     1    17 1   
     5     2     3 1   
     6     2    18 1   
     7     2    19 1   
     8     3     4 1   
     9     3     8 1   
    10     3    20 1   
    11     4     5 1   
    12     4     9 1   
    13     4    21 1   
    14     5     6 1   
    15     5    10 1   
    16     5    22 1   
    17     6    11 2   
    18     6    23 1   
    19     7    24 1   
    20     8    25 1   
    21     9    26 1   
    22    10    27 1   
    23    11    12 1   
    24    11    28 1   
    25    12    13 1   
    26    12    14 1   
    27    12    15 1   
@<TRIPOS>SUBSTRUCTURE
     1 D6P         1 TEMP              0 ****  ****    0 ROOT
