@<TRIPOS>MOLECULE
D6Q
   56    60     1     0     0
SMALL
abcg2


@<TRIPOS>ATOM
      1 N3           6.3300    -0.4070     1.4230 nb         1 D6Q      -0.680000
      2 C4           6.4130    -1.7270     1.2910 ca         1 D6Q       0.384500
      3 C7           6.1680    -3.8390     0.6170 cc         1 D6Q       0.370800
      4 C8           5.7280    -2.5160     0.3490 ca         1 D6Q      -0.286900
      5 N12          2.6840    -0.0400    -1.6180 n          1 D6Q      -0.393800
      6 C13          1.8940     0.7300    -2.5650 c6         1 D6Q       0.090000
      7 C15          0.1480     1.1090    -0.7440 c5         1 D6Q      -0.059700
      8 C17          1.8550    -0.8030    -0.6960 c6         1 D6Q       0.090000
      9 C21         -1.0430     0.3790    -1.3750 c          1 D6Q       0.577000
     10 C24         -4.0390    -0.2960    -0.1040 c          1 D6Q       0.581100
     11 C28         -6.3350    -2.6420     0.3960 c3         1 D6Q       0.277000
     12 C1           4.7570    -0.4960    -0.4110 ca         1 D6Q      -0.243600
     13 C14          1.0320     1.7500    -1.8360 c6         1 D6Q      -0.084900
     14 C16          0.9730     0.1360     0.1220 c6         1 D6Q      -0.084900
     15 C18         -0.5510     2.1530     0.0790 ca         1 D6Q      -0.159300
     16 C19         -1.9280     2.0440    -0.0990 ca         1 D6Q      -0.012000
     17 C2           5.5210     0.1790     0.5660 ca         1 D6Q       0.419900
     18 C27         -6.0810    -1.2280     0.8690 c3         1 D6Q       0.034000
     19 C32         -2.8280     2.8790     0.5310 ca         1 D6Q      -0.136000
     20 C33         -2.3190     3.8660     1.3730 ca         1 D6Q      -0.091000
     21 C34         -0.9600     3.9880     1.5550 ca         1 D6Q       0.105000
     22 C35         -0.0710     3.1340     0.9090 ca         1 D6Q       0.193000
     23 C9           4.8640    -1.8690    -0.5300 ca         1 D6Q       0.036000
     24 F29         -6.9920    -3.3470     1.3250 f          1 D6Q      -0.112000
     25 F30         -7.0750    -2.6690    -0.7210 f          1 D6Q      -0.112000
     26 F31         -5.2020    -3.2980     0.1230 f          1 D6Q      -0.112000
     27 F36          1.2400     3.2860     1.1120 f          1 D6Q      -0.151000
     28 F37         -0.4650     4.9340     2.3630 f          1 D6Q      -0.158000
     29 N20         -2.1910     1.0090    -0.9890 n          1 D6Q      -0.198400
     30 N26         -5.3760    -0.4580    -0.1150 ns         1 D6Q      -0.510900
     31 N5           7.1660    -2.5780     2.0150 na         1 D6Q      -0.161100
     32 N6           7.0180    -3.8450     1.6110 nd         1 D6Q      -0.505100
     33 O22         -1.0030    -0.5890    -2.1030 o          1 D6Q      -0.511000
     34 O25         -3.2980    -0.7550     0.7420 o          1 D6Q      -0.560100
     35 H1           5.8900    -4.7560     0.1220 h4         1 D6Q       0.055800
     36 H2           2.5510     1.2340    -3.2690 h1         1 D6Q       0.071950
     37 H3           1.2790     0.0330    -3.1360 h1         1 D6Q       0.071950
     38 H4           1.2600    -1.5140    -1.2690 h1         1 D6Q       0.071950
     39 H5           2.4690    -1.3800    -0.0110 h1         1 D6Q       0.071950
     40 H6           1.6870     2.4850    -1.3630 hc         1 D6Q       0.065950
     41 H7           0.4100     2.2950    -2.5500 hc         1 D6Q       0.065950
     42 H8           1.6180     0.7200     0.7820 hc         1 D6Q       0.065950
     43 H9           0.3100    -0.4480     0.7650 hc         1 D6Q       0.065950
     44 H10          5.4420     1.2570     0.6450 h4         1 D6Q       0.038100
     45 H11         -3.4620    -0.1160    -2.1580 h1         1 D6Q       0.085200
     46 H12         -4.1700     1.3540    -1.5220 h1         1 D6Q       0.085200
     47 H13         -7.0390    -0.7540     1.0860 h1         1 D6Q       0.093700
     48 H14         -5.5110    -1.2610     1.7980 h1         1 D6Q       0.093700
     49 H15         -3.8970     2.7890     0.3900 ha         1 D6Q       0.127000
     50 H16         -2.9870     4.5430     1.8890 ha         1 D6Q       0.139000
     51 H17          4.3090    -2.4180    -1.2820 ha         1 D6Q       0.133000
     52 H18         -5.9170    -0.0110    -0.8380 hn         1 D6Q       0.326500
     53 H19          7.7830    -2.3600     2.7810 hn         1 D6Q       0.389000
     54 C10          3.9580     0.3350    -1.3610 c          1 D6Q       0.618700
     55 C23         -3.5050     0.5240    -1.2740 c3         1 D6Q       0.019000
     56 O11          4.4920     1.2950    -1.9000 o          1 D6Q      -0.590100
@<TRIPOS>BOND
     1     1     2 ar  
     2     1    17 ar  
     3     2     4 ar  
     4     2    31 1   
     5     3     4 1   
     6     3    32 2   
     7     3    35 1   
     8     4    23 ar  
     9     5     6 1   
    10     5     8 1   
    11     5    54 1   
    12     6    13 1   
    13     6    36 1   
    14     6    37 1   
    15     7     9 1   
    16     7    13 1   
    17     7    14 1   
    18     7    15 1   
    19     8    14 1   
    20     8    38 1   
    21     8    39 1   
    22     9    29 1   
    23     9    33 2   
    24    10    30 1   
    25    10    34 2   
    26    10    55 1   
    27    11    18 1   
    28    11    24 1   
    29    11    25 1   
    30    11    26 1   
    31    12    17 ar  
    32    12    23 ar  
    33    12    54 1   
    34    13    40 1   
    35    13    41 1   
    36    14    42 1   
    37    14    43 1   
    38    15    16 ar  
    39    15    22 ar  
    40    16    19 ar  
    41    16    29 1   
    42    17    44 1   
    43    18    30 1   
    44    18    47 1   
    45    18    48 1   
    46    19    20 ar  
    47    19    49 1   
    48    20    21 ar  
    49    20    50 1   
    50    21    22 ar  
    51    21    28 1   
    52    22    27 1   
    53    23    51 1   
    54    29    55 1   
    55    30    52 1   
    56    31    32 1   
    57    31    53 1   
    58    45    55 1   
    59    46    55 1   
    60    54    56 2   
@<TRIPOS>SUBSTRUCTURE
     1 D6Q         1 TEMP              0 ****  ****    0 ROOT
