@<TRIPOS>MOLECULE
D6Q
   56    60     1     0     0
SMALL
No Charge or Current Charge


@<TRIPOS>ATOM
      1 N3           6.8880    -0.9710     0.9400 nb         1 D6Q      -0.680000
      2 C4           6.5570    -2.2710     0.9930 ca         1 D6Q       0.384500
      3 C7           5.4550    -4.2000     0.6350 cc         1 D6Q       0.370800
      4 C8           5.4590    -2.7850     0.3730 ca         1 D6Q      -0.286900
      5 N12          2.6860     0.1340    -1.3520 n          1 D6Q      -0.393800
      6 C13          1.8930     0.8810    -2.3660 c6         1 D6Q       0.090000
      7 C15          0.0840     1.4230    -0.6130 c5         1 D6Q      -0.059700
      8 C17          1.8440    -0.4410    -0.2630 c6         1 D6Q       0.090000
      9 C21         -1.0870     0.5460    -1.2070 c          1 D6Q       0.577000
     10 C24         -4.0930    -0.3250    -0.0220 c          1 D6Q       0.581100
     11 C28         -5.6620    -3.3160     0.3010 c3         1 D6Q       0.277000
     12 C1           4.8880    -0.6120    -0.4130 ca         1 D6Q      -0.243600
     13 C14          1.0290     1.9890    -1.7170 c6         1 D6Q      -0.084900
     14 C16          0.9620     0.6410     0.4090 c6         1 D6Q      -0.084900
     15 C18         -0.6820     2.5570     0.0800 ca         1 D6Q      -0.159300
     16 C19         -2.0450     2.3780    -0.0690 ca         1 D6Q      -0.012000
     17 C2           6.0570    -0.1580     0.2330 ca         1 D6Q       0.419900
     18 C27         -6.0100    -1.8450     0.6380 c3         1 D6Q       0.034000
     19 C32         -2.9780     3.3240     0.3870 ca         1 D6Q      -0.136000
     20 C33         -2.5010     4.4500     1.0870 ca         1 D6Q      -0.091000
     21 C34         -1.1150     4.6240     1.2870 ca         1 D6Q       0.105000
     22 C35         -0.1940     3.6830     0.7760 ca         1 D6Q       0.193000
     23 C9           4.5790    -1.9890    -0.3640 ca         1 D6Q       0.036000
     24 F29         -6.3390    -4.1610     1.1120 f          1 D6Q      -0.112000
     25 F30         -5.9950    -3.6110    -0.9760 f          1 D6Q      -0.112000
     26 F31         -4.3410    -3.5610     0.4560 f          1 D6Q      -0.112000
     27 F36          1.1350     3.8730     0.9490 f          1 D6Q      -0.151000
     28 F37         -0.6740     5.7130     1.9570 f          1 D6Q      -0.158000
     29 N20         -2.2660     1.2280    -0.8560 n          1 D6Q      -0.198400
     30 N26         -5.3510    -0.8510    -0.2380 ns         1 D6Q      -0.510900
     31 N5           7.1680    -3.3480     1.5970 na         1 D6Q      -0.161100
     32 N6           6.5010    -4.5650     1.3890 nd         1 D6Q      -0.505100
     33 O22         -1.0380    -0.5100    -1.8260 o          1 D6Q      -0.511000
     34 O25         -3.4280    -0.6210     0.9620 o          1 D6Q      -0.560100
     35 H1           4.7650    -4.9750     0.3280 h4         1 D6Q       0.055800
     36 H2           2.5560     1.3300    -3.1190 h1         1 D6Q       0.071950
     37 H3           1.2490     0.1730    -2.9050 h1         1 D6Q       0.071950
     38 H4           1.2120    -1.2380    -0.6800 h1         1 D6Q       0.071950
     39 H5           2.4640    -0.8990     0.5190 h1         1 D6Q       0.071950
     40 H6           1.6990     2.7480    -1.2930 hc         1 D6Q       0.065950
     41 H7           0.4380     2.4980    -2.4910 hc         1 D6Q       0.065950
     42 H8           1.6200     1.3360     0.9490 hc         1 D6Q       0.065950
     43 H9           0.3220     0.1750     1.1710 hc         1 D6Q       0.065950
     44 H10          6.3400     0.8940     0.2010 h4         1 D6Q       0.038100
     45 H11         -3.5990     0.1090    -2.0600 h1         1 D6Q       0.085200
     46 H12         -4.3480     1.4550    -1.1970 h1         1 D6Q       0.085200
     47 H13         -7.0980    -1.7150     0.5590 h1         1 D6Q       0.093700
     48 H14         -5.7360    -1.6470     1.6830 h1         1 D6Q       0.093700
     49 H15         -4.0450     3.1960     0.2190 ha         1 D6Q       0.127000
     50 H16         -3.1990     5.1920     1.4690 ha         1 D6Q       0.139000
     51 H17          3.7210    -2.4180    -0.8800 ha         1 D6Q       0.133000
     52 H18         -5.8360    -0.5520    -1.0780 hn         1 D6Q       0.326500
     53 H19          8.0220    -3.2900     2.1440 hn         1 D6Q       0.389000
     54 C10          4.0700     0.3750    -1.1850 c          1 D6Q       0.618700
     55 C23         -3.6090     0.6510    -1.1070 c3         1 D6Q       0.019000
     56 O11          4.6140     1.3220    -1.7360 o          1 D6Q      -0.590100
@<TRIPOS>BOND
     1     1     2 ar  
     2     1    17 ar  
     3     2     4 ar  
     4     2    31 1   
     5     3     4 1   
     6     3    32 2   
     7     3    35 1   
     8     4    23 ar  
     9     5     6 1   
    10     5     8 1   
    11     5    54 1   
    12     6    13 1   
    13     6    36 1   
    14     6    37 1   
    15     7     9 1   
    16     7    13 1   
    17     7    14 1   
    18     7    15 1   
    19     8    14 1   
    20     8    38 1   
    21     8    39 1   
    22     9    29 1   
    23     9    33 2   
    24    10    30 1   
    25    10    34 2   
    26    10    55 1   
    27    11    18 1   
    28    11    24 1   
    29    11    25 1   
    30    11    26 1   
    31    12    17 ar  
    32    12    23 ar  
    33    12    54 1   
    34    13    40 1   
    35    13    41 1   
    36    14    42 1   
    37    14    43 1   
    38    15    16 ar  
    39    15    22 ar  
    40    16    19 ar  
    41    16    29 1   
    42    17    44 1   
    43    18    30 1   
    44    18    47 1   
    45    18    48 1   
    46    19    20 ar  
    47    19    49 1   
    48    20    21 ar  
    49    20    50 1   
    50    21    22 ar  
    51    21    28 1   
    52    22    27 1   
    53    23    51 1   
    54    29    55 1   
    55    30    52 1   
    56    31    32 1   
    57    31    53 1   
    58    45    55 1   
    59    46    55 1   
    60    54    56 2   
@<TRIPOS>SUBSTRUCTURE
     1 D6Q         1 TEMP              0 ****  ****    0 ROOT
