@<TRIPOS>MOLECULE
D6R
   38    41     1     0     0
SMALL
No Charge or Current Charge


@<TRIPOS>ATOM
      1 C4         -19.7530    -7.7530    78.3710 ca         1 D6R      -0.009000
      2 C14        -26.9850    -7.4670    80.8830 ca         1 D6R       0.137100
      3 C5         -20.4070    -8.6660    77.5170 ca         1 D6R      -0.199000
      4 C6         -21.8270    -8.6620    77.4050 ca         1 D6R       0.154100
      5 C11        -23.7690    -5.6170    80.3010 cc         1 D6R      -0.141000
      6 C7         -20.1420    -5.7730    80.0240 c          1 D6R       0.325800
      7 C8         -22.4610    -5.8790    79.9520 cd         1 D6R       0.072700
      8 C9         -24.8840    -7.5550    78.9960 ca         1 D6R       0.203300
      9 C10        -24.8340    -6.6020    80.0540 ca         1 D6R      -0.006000
     10 C12        -25.9800    -8.4310    78.8940 ca         1 D6R      -0.076000
     11 C13        -27.0250    -8.4000    79.8310 ca         1 D6R      -0.185000
     12 N1         -21.3500    -5.2000    80.4570 n          1 D6R      -0.225700
     13 C3         -20.5450    -6.8760    79.1200 ca         1 D6R      -0.162000
     14 C1         -22.5990    -7.7620    78.1920 ca         1 D6R       0.243300
     15 C15        -25.9010    -6.5820    80.9810 ca         1 D6R      -0.134000
     16 C16        -21.3980    -4.0610    81.3950 c3         1 D6R       0.064900
     17 C17        -21.7900   -10.4450    75.6850 c3         1 D6R       0.144900
     18 C18        -29.1320    -8.2390    81.8260 c3         1 D6R       0.148900
     19 C2         -21.9300    -6.9040    79.0650 ca         1 D6R      -0.067800
     20 O1         -23.9550    -7.6400    77.9860 os         1 D6R      -0.485600
     21 O2         -19.0060    -5.4340    80.3200 o          1 D6R      -0.316000
     22 O3         -22.4870    -9.5090    76.5260 os         1 D6R      -0.318100
     23 O4         -27.9790    -7.3780    81.8370 os         1 D6R      -0.340100
     24 H1         -18.6670    -7.7190    78.4330 ha         1 D6R       0.136000
     25 H2         -19.7960    -9.3430    76.9280 ha         1 D6R       0.125000
     26 H3         -23.9680    -4.7810    80.9620 ha         1 D6R       0.122000
     27 H4         -26.0160    -9.1410    78.0720 ha         1 D6R       0.131000
     28 H5         -27.8510    -9.0960    79.7190 ha         1 D6R       0.122000
     29 H6         -25.8890    -5.8690    81.8010 ha         1 D6R       0.127000
     30 H7         -22.0240    -3.2640    80.9750 h1         1 D6R       0.049033
     31 H8         -21.8240    -4.3910    82.3510 h1         1 D6R       0.049033
     32 H9         -20.3910    -3.6640    81.5710 h1         1 D6R       0.049033
     33 H10        -22.5050   -11.0110    75.0750 h1         1 D6R       0.045367
     34 H11        -21.1030    -9.9250    75.0070 h1         1 D6R       0.045367
     35 H12        -21.2180   -11.1610    76.2890 h1         1 D6R       0.045367
     36 H13        -29.7920    -8.0000    82.6700 h1         1 D6R       0.041700
     37 H14        -29.7060    -8.1110    80.8990 h1         1 D6R       0.041700
     38 H15        -28.8340    -9.2910    81.9150 h1         1 D6R       0.041700
@<TRIPOS>BOND
     1     1     3 ar  
     2     1    13 ar  
     3     1    24 1   
     4     2    11 ar  
     5     2    15 ar  
     6     2    23 1   
     7     3     4 ar  
     8     3    25 1   
     9     4    14 ar  
    10     4    22 1   
    11     5     7 2   
    12     5     9 1   
    13     5    26 1   
    14     6    12 1   
    15     6    13 1   
    16     6    21 2   
    17     7    12 1   
    18     7    19 1   
    19     8     9 ar  
    20     8    10 ar  
    21     8    20 1   
    22     9    15 ar  
    23    10    11 ar  
    24    10    27 1   
    25    11    28 1   
    26    12    16 1   
    27    13    19 ar  
    28    14    19 ar  
    29    14    20 1   
    30    15    29 1   
    31    16    30 1   
    32    16    31 1   
    33    16    32 1   
    34    17    22 1   
    35    17    33 1   
    36    17    34 1   
    37    17    35 1   
    38    18    23 1   
    39    18    36 1   
    40    18    37 1   
    41    18    38 1   
@<TRIPOS>SUBSTRUCTURE
     1 D6R         1 TEMP              0 ****  ****    0 ROOT
