@<TRIPOS>MOLECULE
D6R
   38    41     1     0     0
SMALL
abcg2


@<TRIPOS>ATOM
      1 C4         -19.8020    -7.7540    78.3610 ca         1 D6R      -0.009000
      2 C14        -26.9620    -7.4820    80.8270 ca         1 D6R       0.137100
      3 C5         -20.4790    -8.6490    77.5400 ca         1 D6R      -0.199000
      4 C6         -21.8760    -8.6400    77.4450 ca         1 D6R       0.154100
      5 C11        -23.7170    -5.6960    80.3460 cc         1 D6R      -0.141000
      6 C7         -20.1550    -5.7590    79.9970 c          1 D6R       0.325800
      7 C8         -22.4480    -5.8620    79.9450 cd         1 D6R       0.072700
      8 C9         -24.8520    -7.5560    79.0060 ca         1 D6R       0.203300
      9 C10        -24.8140    -6.6130    80.0490 ca         1 D6R      -0.006000
     10 C12        -25.9020    -8.4460    78.9090 ca         1 D6R      -0.076000
     11 C13        -26.9630    -8.4250    79.8060 ca         1 D6R      -0.185000
     12 N1         -21.3340    -5.1740    80.4130 n          1 D6R      -0.225700
     13 C3         -20.5480    -6.8720    79.1140 ca         1 D6R      -0.162000
     14 C1         -22.6170    -7.7110    78.1980 ca         1 D6R       0.243300
     15 C15        -25.8910    -6.5980    80.9340 ca         1 D6R      -0.134000
     16 C16        -21.4110    -4.0980    81.3670 c3         1 D6R       0.064900
     17 C17        -21.9060   -10.3740    75.8310 c3         1 D6R       0.144900
     18 C18        -29.0200    -8.2560    81.7130 c3         1 D6R       0.148900
     19 C2         -21.9350    -6.8840    79.0530 ca         1 D6R      -0.067800
     20 O1         -23.9470    -7.5850    77.9650 os         1 D6R      -0.485600
     21 O2         -19.0390    -5.3960    80.3080 o          1 D6R      -0.316000
     22 O3         -22.5900    -9.4430    76.6510 os         1 D6R      -0.318100
     23 O4         -27.9330    -7.3530    81.7510 os         1 D6R      -0.340100
     24 H1         -18.7210    -7.7550    78.3900 ha         1 D6R       0.136000
     25 H2         -19.9010    -9.3510    76.9550 ha         1 D6R       0.125000
     26 H3         -23.9390    -4.9170    81.0650 ha         1 D6R       0.122000
     27 H4         -25.9050    -9.1630    78.0970 ha         1 D6R       0.131000
     28 H5         -27.7650    -9.1380    79.6800 ha         1 D6R       0.122000
     29 H6         -25.8910    -5.8810    81.7470 ha         1 D6R       0.127000
     30 H7         -22.0300    -3.2880    80.9810 h1         1 D6R       0.049033
     31 H8         -21.8300    -4.4410    82.3140 h1         1 D6R       0.049033
     32 H9         -20.4120    -3.7120    81.5460 h1         1 D6R       0.049033
     33 H10        -22.6700   -10.9110    75.2760 h1         1 D6R       0.045367
     34 H11        -21.2370    -9.8760    75.1250 h1         1 D6R       0.045367
     35 H12        -21.3310   -11.0890    76.4230 h1         1 D6R       0.045367
     36 H13        -29.6740    -7.9880    82.5390 h1         1 D6R       0.041700
     37 H14        -29.5840    -8.1780    80.7800 h1         1 D6R       0.041700
     38 H15        -28.6940    -9.2910    81.8430 h1         1 D6R       0.041700
@<TRIPOS>BOND
     1     1     3 ar  
     2     1    13 ar  
     3     1    24 1   
     4     2    11 ar  
     5     2    15 ar  
     6     2    23 1   
     7     3     4 ar  
     8     3    25 1   
     9     4    14 ar  
    10     4    22 1   
    11     5     7 2   
    12     5     9 1   
    13     5    26 1   
    14     6    12 1   
    15     6    13 1   
    16     6    21 2   
    17     7    12 1   
    18     7    19 1   
    19     8     9 ar  
    20     8    10 ar  
    21     8    20 1   
    22     9    15 ar  
    23    10    11 ar  
    24    10    27 1   
    25    11    28 1   
    26    12    16 1   
    27    13    19 ar  
    28    14    19 ar  
    29    14    20 1   
    30    15    29 1   
    31    16    30 1   
    32    16    31 1   
    33    16    32 1   
    34    17    22 1   
    35    17    33 1   
    36    17    34 1   
    37    17    35 1   
    38    18    23 1   
    39    18    36 1   
    40    18    37 1   
    41    18    38 1   
@<TRIPOS>SUBSTRUCTURE
     1 D6R         1 TEMP              0 ****  ****    0 ROOT
