@<TRIPOS>MOLECULE
D6S
   39    41     1     0     0
SMALL
No Charge or Current Charge


@<TRIPOS>ATOM
      1 C4          -6.2700    -0.3520    10.7790 ca         1 D6S      -0.114000
      2 C5          -6.0410    -1.4940    11.5660 ca         1 D6S      -0.109000
      3 C6          -4.7260    -1.9210    11.8140 ca         1 D6S      -0.114000
      4 N1           2.0490     3.9580     9.3550 n8         1 D6S      -0.993200
      5 C7          -3.6400    -1.2090    11.2760 ca         1 D6S      -0.098500
      6 C8          -1.7200     3.0480     9.6730 c6         1 D6S       0.134500
      7 C9          -0.1580     2.8500     9.7470 c6         1 D6S       0.140300
      8 C10          0.5990     4.0100     9.0060 c6         1 D6S       0.139500
      9 C11         -0.1410     5.3750     9.2400 c5         1 D6S       0.122300
     10 C12         -1.2760     5.6310     8.1890 c5         1 D6S       0.122600
     11 C13         -2.0860     4.5430    10.0620 c5         1 D6S       0.364300
     12 O2           0.2640     1.5700     9.2270 oh         1 D6S      -0.669000
     13 O1          -0.9160     5.2880    10.4600 os         1 D6S      -0.436000
     14 O           -2.4960     5.2900     8.8970 os         1 D6S      -0.461000
     15 N           -2.5270     2.0640    10.4960 n3         1 D6S      -0.759600
     16 C           -2.2110     2.0380    11.9490 c3         1 D6S       0.164100
     17 C2          -3.8630    -0.0630    10.4850 ca         1 D6S      -0.091300
     18 C3          -5.1840     0.3600    10.2400 ca         1 D6S      -0.098500
     19 H1          -7.2870    -0.0190    10.5870 ha         1 D6S       0.111500
     20 H2          -6.8810    -2.0450    11.9830 ha         1 D6S       0.111000
     21 H3          -4.5480    -2.8050    12.4240 ha         1 D6S       0.111500
     22 H5           2.5920     4.3860     8.5970 hn         1 D6S       0.400500
     23 H7          -2.6250    -1.5480    11.4750 ha         1 D6S       0.116500
     24 H8          -2.0070     2.9280     8.6180 h1         1 D6S       0.084700
     25 H9           0.1240     2.9180    10.8080 h1         1 D6S       0.065700
     26 H10          0.5560     3.7880     7.9290 h1         1 D6S       0.039700
     27 H11          0.5790     6.2030     9.2910 h1         1 D6S       0.099700
     28 H12         -1.1780     5.0070     7.2910 h1         1 D6S       0.057200
     29 H13         -1.3220     6.6840     7.8810 h1         1 D6S       0.057200
     30 H14         -2.8640     4.5820    10.8360 h2         1 D6S       0.116700
     31 H15         -0.1420     0.8950     9.8110 ho         1 D6S       0.449000
     32 H17         -2.9760     1.4810    12.5050 h1         1 D6S       0.033367
     33 H18         -1.2410     1.5560    12.1310 h1         1 D6S       0.033367
     34 H19         -2.1730     3.0520    12.3670 h1         1 D6S       0.033367
     35 H22         -5.3660     1.2460     9.6350 ha         1 D6S       0.116500
     36 C1          -2.6880     0.7140     9.8950 c3         1 D6S       0.241100
     37 H4           2.3310     2.9700     9.3200 hn         1 D6S       0.400500
     38 H20         -1.7740     0.1220    10.0260 h1         1 D6S       0.040200
     39 H21         -2.8600     0.8040     8.8140 h1         1 D6S       0.040200
@<TRIPOS>BOND
     1     1     2 ar  
     2     1    18 ar  
     3     1    19 1   
     4     2     3 ar  
     5     2    20 1   
     6     3     5 ar  
     7     3    21 1   
     8     4     8 1   
     9     4    22 1   
    10     4    37 1   
    11     5    17 ar  
    12     5    23 1   
    13     6     7 1   
    14     6    11 1   
    15     6    15 1   
    16     6    24 1   
    17     7     8 1   
    18     7    12 1   
    19     7    25 1   
    20     8     9 1   
    21     8    26 1   
    22     9    10 1   
    23     9    13 1   
    24     9    27 1   
    25    10    14 1   
    26    10    28 1   
    27    10    29 1   
    28    11    13 1   
    29    11    14 1   
    30    11    30 1   
    31    12    31 1   
    32    15    16 1   
    33    15    36 1   
    34    16    32 1   
    35    16    33 1   
    36    16    34 1   
    37    17    18 ar  
    38    17    36 1   
    39    18    35 1   
    40    36    38 1   
    41    36    39 1   
@<TRIPOS>SUBSTRUCTURE
     1 D6S         1 TEMP              0 ****  ****    0 ROOT
