@<TRIPOS>MOLECULE
D6S
   39    41     1     0     0
SMALL
bcc


@<TRIPOS>ATOM
      1 C4          -6.1700     0.0130    10.9860 ca         1 D6S      -0.132000
      2 C5          -6.1490    -1.2940    11.4610 ca         1 D6S      -0.127000
      3 C6          -4.9470    -1.9850    11.5080 ca         1 D6S      -0.132000
      4 N1           1.8600     4.1530     9.4330 n8         1 D6S      -0.882800
      5 C7          -3.7750    -1.3720    11.0790 ca         1 D6S      -0.116500
      6 C8          -1.6800     2.8480     9.6330 c6         1 D6S       0.134500
      7 C9          -0.1500     2.8250     9.7620 c6         1 D6S       0.117100
      8 C10          0.4900     3.9710     8.9780 c6         1 D6S       0.139500
      9 C11         -0.3200     5.2630     9.2100 c5         1 D6S       0.099100
     10 C12         -1.3530     5.5420     8.1140 c5         1 D6S       0.099400
     11 C13         -2.1830     4.3020     9.8250 c5         1 D6S       0.317900
     12 O2           0.3870     1.6030     9.2940 oh         1 D6S      -0.606800
     13 O1          -1.1660     5.1130    10.3440 os         1 D6S      -0.389600
     14 O           -2.5250     4.8950     8.5940 os         1 D6S      -0.414600
     15 N           -2.4000     1.9490    10.5160 n3         1 D6S      -0.759600
     16 C           -2.0850     2.0590    11.9220 c3         1 D6S       0.164100
     17 C2          -3.7870    -0.0690    10.5950 ca         1 D6S      -0.091300
     18 C3          -4.9980     0.6200    10.5590 ca         1 D6S      -0.116500
     19 H1          -7.1040     0.5600    10.9460 ha         1 D6S       0.129500
     20 H2          -7.0640    -1.7670    11.7940 ha         1 D6S       0.129000
     21 H3          -4.9170    -3.0000    11.8840 ha         1 D6S       0.129500
     22 H5           2.3200     4.8390     8.8470 hn         1 D6S       0.345300
     23 H7          -2.8380    -1.9160    11.1290 ha         1 D6S       0.134500
     24 H8          -1.9330     2.5450     8.6120 h1         1 D6S       0.084700
     25 H9           0.1240     2.9760    10.8130 h1         1 D6S       0.065700
     26 H10          0.4370     3.7150     7.9080 h1         1 D6S       0.039700
     27 H11          0.3450     6.1110     9.3770 h1         1 D6S       0.099700
     28 H12         -1.0560     5.1440     7.1420 h1         1 D6S       0.057200
     29 H13         -1.5430     6.6120     8.0030 h1         1 D6S       0.057200
     30 H14         -3.0510     4.3290    10.4890 h2         1 D6S       0.116700
     31 H15          0.5520     1.0250    10.0420 ho         1 D6S       0.410000
     32 H17         -2.8600     1.5710    12.5140 h1         1 D6S       0.033367
     33 H18         -1.1250     1.6000    12.2020 h1         1 D6S       0.033367
     34 H19         -2.0530     3.1030    12.2360 h1         1 D6S       0.033367
     35 H22         -5.0130     1.6430    10.2030 ha         1 D6S       0.134500
     36 C1          -2.5220     0.5770    10.0800 c3         1 D6S       0.241100
     37 H4           2.3720     3.2910     9.2870 hn         1 D6S       0.345300
     38 H20         -1.6660    -0.0510    10.3730 h1         1 D6S       0.040200
     39 H21         -2.5480     0.5630     8.9870 h1         1 D6S       0.040200
@<TRIPOS>BOND
     1     1     2 ar  
     2     1    18 ar  
     3     1    19 1   
     4     2     3 ar  
     5     2    20 1   
     6     3     5 ar  
     7     3    21 1   
     8     4     8 1   
     9     4    22 1   
    10     4    37 1   
    11     5    17 ar  
    12     5    23 1   
    13     6     7 1   
    14     6    11 1   
    15     6    15 1   
    16     6    24 1   
    17     7     8 1   
    18     7    12 1   
    19     7    25 1   
    20     8     9 1   
    21     8    26 1   
    22     9    10 1   
    23     9    13 1   
    24     9    27 1   
    25    10    14 1   
    26    10    28 1   
    27    10    29 1   
    28    11    13 1   
    29    11    14 1   
    30    11    30 1   
    31    12    31 1   
    32    15    16 1   
    33    15    36 1   
    34    16    32 1   
    35    16    33 1   
    36    16    34 1   
    37    17    18 ar  
    38    17    36 1   
    39    18    35 1   
    40    36    38 1   
    41    36    39 1   
@<TRIPOS>SUBSTRUCTURE
     1 D6S         1 TEMP              0 ****  ****    0 ROOT
