@<TRIPOS>MOLECULE
D6T
  109   115     1     0     0
SMALL
No Charge or Current Charge


@<TRIPOS>ATOM
      1 C1           7.2640    -2.3390     1.5370 ca         1 D6T      -0.049000
      2 C2           8.4570    -1.7200     1.1140 ca         1 D6T      -0.238600
      3 C3           8.3980    -0.4470     0.4960 ca         1 D6T       0.053000
      4 C4           7.1410     0.1680     0.3040 ca         1 D6T      -0.143000
      5 C11         11.3790     1.6870    -0.6880 ca         1 D6T       0.306500
      6 C12         13.5050     0.7720    -1.1030 ca         1 D6T       0.268000
      7 C13         14.0140     2.0390    -1.4830 ca         1 D6T      -0.068000
      8 C14         13.1620     3.1550    -1.4590 ca         1 D6T      -0.072000
      9 C15         11.8300     2.9730    -1.0560 ca         1 D6T      -0.117000
     10 C16          4.6490     0.2270     0.5180 cc         1 D6T       0.246500
     11 C17          3.4520    -0.3880     0.7410 cd         1 D6T      -0.184000
     12 C18          1.2170     0.3490     0.4480 ca         1 D6T      -0.005200
     13 C19          0.4380     0.5200    -0.7130 ca         1 D6T      -0.098500
     14 C20         -0.9400     0.2430    -0.6910 ca         1 D6T      -0.097500
     15 C21         -1.5570    -0.2040     0.4930 ca         1 D6T      -0.070300
     16 C22         -0.7800    -0.3730     1.6550 ca         1 D6T      -0.097500
     17 C23          0.5980    -0.0970     1.6340 ca         1 D6T      -0.098500
     18 C24         -3.0490    -0.5090     0.5130 c3         1 D6T      -0.036100
     19 C25         -3.3510    -1.9400     0.0160 c3         1 D6T       0.170800
     20 C26         -5.7120    -1.5450    -0.6630 c6         1 D6T       0.214100
     21 C27         -7.1650    -2.0450    -0.6580 ca         1 D6T      -0.075300
     22 C28         -7.4740    -3.3570    -0.2470 ca         1 D6T      -0.065300
     23 C29         -6.3650    -4.2910     0.2390 c6         1 D6T      -0.023100
     24 C30         -4.9490    -3.8080    -0.1500 c6         1 D6T       0.168800
     25 C31         -8.1950    -1.1880    -1.0890 ca         1 D6T      -0.172000
     26 C32         -9.5380    -1.6300    -1.1060 ca         1 D6T       0.120100
     27 C33         -9.8470    -2.9460    -0.6870 ca         1 D6T       0.114100
     28 C34         -8.8090    -3.8030    -0.2570 ca         1 D6T      -0.170000
     29 C35        -11.5780    -4.6740    -0.3030 c3         1 D6T       0.145900
     30 C36         14.3710    -0.3370    -1.1320 ca         1 D6T      -0.073000
     31 C37         15.7130    -0.1970    -1.5290 ca         1 D6T      -0.107000
     32 C38         16.2060     1.0630    -1.9040 ca         1 D6T      -0.098000
     33 C39         15.3580     2.1820    -1.8820 ca         1 D6T      -0.098000
     34 C40        -10.3530     0.5460    -1.9690 c3         1 D6T       0.160600
     35 C41        -11.7140     1.1650    -2.3590 c3         1 D6T       0.162600
     36 C42        -13.7860     1.9680    -1.3900 c3         1 D6T       0.162600
     37 C43        -14.4910     2.1750    -0.0280 c3         1 D6T       0.161600
     38 C44        -14.4200     3.5550     1.9640 c3         1 D6T       0.161600
     39 C45        -13.6600     4.7470     2.5920 c3         1 D6T       0.158600
     40 C46        -13.3670     7.1420     2.3830 c3         1 D6T       0.145900
     41 C5           5.9420    -0.4520     0.7210 ca         1 D6T      -0.042500
     42 C6           6.0250    -1.7110     1.3490 ca         1 D6T      -0.158000
     43 C7           9.7760    -2.4230     1.3260 c          1 D6T       0.591700
     44 C8          10.0910    -3.0170     2.7080 c3         1 D6T      -0.172400
     45 C9          10.9550    -2.0460     3.5420 c3         1 D6T      -0.079100
     46 N1           9.6090     0.1730     0.0780 ns         1 D6T      -0.137000
     47 N2          12.2180     0.6080    -0.7160 nb         1 D6T      -0.652000
     48 N3           2.5840     0.6250     0.4220 na         1 D6T       0.221000
     49 N4           3.2060     1.7630    -0.0120 nd         1 D6T      -0.185800
     50 N5           4.4930     1.5150     0.0670 nc         1 D6T      -0.335000
     51 N6          -4.7680    -2.3650     0.1490 n3         1 D6T      -0.714600
     52 O1          10.5890    -2.5140     0.4150 o          1 D6T      -0.544100
     53 O2           9.1260     2.4160    -0.1650 o          1 D6T      -0.572100
     54 O4         -10.5710    -0.8080    -1.5240 os         1 D6T      -0.315100
     55 O5         -12.4820     1.3990    -1.1620 os         1 D6T      -0.432000
     56 O6         -13.8590     3.2690     0.6670 os         1 D6T      -0.435000
     57 O7         -14.0180     5.9580     1.8930 os         1 D6T      -0.443000
     58 H1           7.2860    -3.3220     2.0030 ha         1 D6T       0.110000
     59 H2           7.0790     1.1320    -0.1900 ha         1 D6T       0.174000
     60 H3          13.5210     4.1420    -1.7440 ha         1 D6T       0.123000
     61 H4          11.1510     3.8220    -1.0270 ha         1 D6T       0.149000
     62 H5           3.1640    -1.3770     1.0650 h4         1 D6T       0.170000
     63 H6           0.9020     0.8640    -1.6350 ha         1 D6T       0.134000
     64 H7          -1.5290     0.3760    -1.5960 ha         1 D6T       0.122000
     65 H8          -1.2440    -0.7200     2.5760 ha         1 D6T       0.122000
     66 H9           1.1850    -0.2280     2.5410 ha         1 D6T       0.134000
     67 H10         -3.4460    -0.3940     1.5280 hc         1 D6T       0.060200
     68 H11         -3.5790     0.2200    -0.1110 hc         1 D6T       0.060200
     69 H12         -3.0320    -2.0220    -1.0330 h1         1 D6T       0.032700
     70 H13         -2.7170    -2.6260     0.5950 h1         1 D6T       0.032700
     71 H14         -5.3750    -1.5150    -1.7100 h1         1 D6T       0.038700
     72 H15         -6.4250    -4.3710     1.3330 hc         1 D6T       0.053700
     73 H16         -4.2110    -4.4140     0.3960 h1         1 D6T       0.033200
     74 H17         -7.9330    -0.1830    -1.4080 ha         1 D6T       0.115000
     75 H18         -9.0190    -4.8160     0.0730 ha         1 D6T       0.116000
     76 H19        -12.6650    -4.7830    -0.4030 h1         1 D6T       0.038367
     77 H20        -11.1010    -5.4410    -0.9270 h1         1 D6T       0.038367
     78 H21        -11.3130    -4.8570     0.7470 h1         1 D6T       0.038367
     79 H22         13.9940    -1.3140    -0.8430 ha         1 D6T       0.140000
     80 H23         16.3680    -1.0650    -1.5460 ha         1 D6T       0.118000
     81 H24         17.2440     1.1730    -2.2120 ha         1 D6T       0.116000
     82 H25         15.7440     3.1560    -2.1730 ha         1 D6T       0.117000
     83 H26         -9.6960     0.5570    -2.8480 h1         1 D6T       0.041200
     84 H27         -9.8900     1.1520    -1.1800 h1         1 D6T       0.041200
     85 H28        -11.5360     2.1110    -2.8870 h1         1 D6T       0.030700
     86 H29        -12.2440     0.4870    -3.0410 h1         1 D6T       0.030700
     87 H30        -14.3940     1.2900    -2.0040 h1         1 D6T       0.028700
     88 H31        -13.7120     2.9300    -1.9150 h1         1 D6T       0.028700
     89 H32        -15.5500     2.4010    -0.2090 h1         1 D6T       0.028700
     90 H33        -14.4340     1.2490     0.5590 h1         1 D6T       0.028700
     91 H34        -14.3170     2.6830     2.6220 h1         1 D6T       0.026700
     92 H35        -15.4880     3.7990     1.8870 h1         1 D6T       0.026700
     93 H36        -13.9370     4.8250     3.6510 h1         1 D6T       0.029200
     94 H37        -12.5780     4.5640     2.5340 h1         1 D6T       0.029200
     95 H38        -13.6160     7.3160     3.4370 h1         1 D6T       0.027033
     96 H39        -12.2760     7.0530     2.2930 h1         1 D6T       0.027033
     97 H40        -13.6870     8.0190     1.8060 h1         1 D6T       0.027033
     98 H41          5.1310    -2.2210     1.6970 ha         1 D6T       0.112000
     99 H42          9.1680    -3.1830     3.2730 hc         1 D6T       0.061700
    100 H43         10.6390    -3.9580     2.5840 hc         1 D6T       0.061700
    101 H44         11.9080    -1.8430     3.0390 hc         1 D6T       0.041033
    102 H45         10.4330    -1.0920     3.6910 hc         1 D6T       0.041033
    103 H46         11.1720    -2.4750     4.5280 hc         1 D6T       0.041033
    104 H47         10.3910    -0.4660    -0.0160 hn         1 D6T       0.220000
    105 H48         -5.7140    -0.5070    -0.3020 h1         1 D6T       0.038700
    106 H49         -6.5220    -5.3050    -0.1530 hc         1 D6T       0.053700
    107 H50         -4.7880    -3.9930    -1.2230 h1         1 D6T       0.033200
    108 O3         -11.1700    -3.3570    -0.7110 os         1 D6T      -0.318100
    109 C10          9.9290     1.4870    -0.2450 c          1 D6T       0.513600
@<TRIPOS>BOND
     1     1     2 ar  
     2     1    42 ar  
     3     1    58 1   
     4     2     3 ar  
     5     2    43 1   
     6     3     4 ar  
     7     3    46 1   
     8     4    41 ar  
     9     4    59 1   
    10     5     9 ar  
    11     5    47 ar  
    12     5   109 1   
    13     6     7 ar  
    14     6    30 ar  
    15     6    47 ar  
    16     7     8 ar  
    17     7    33 ar  
    18     8     9 ar  
    19     8    60 1   
    20     9    61 1   
    21    10    11 2   
    22    10    41 1   
    23    10    50 1   
    24    11    48 1   
    25    11    62 1   
    26    12    13 ar  
    27    12    17 ar  
    28    12    48 1   
    29    13    14 ar  
    30    13    63 1   
    31    14    15 ar  
    32    14    64 1   
    33    15    16 ar  
    34    15    18 1   
    35    16    17 ar  
    36    16    65 1   
    37    17    66 1   
    38    18    19 1   
    39    18    67 1   
    40    18    68 1   
    41    19    51 1   
    42    19    69 1   
    43    19    70 1   
    44    20    21 1   
    45    20    51 1   
    46    20    71 1   
    47    20   105 1   
    48    21    22 ar  
    49    21    25 ar  
    50    22    23 1   
    51    22    28 ar  
    52    23    24 1   
    53    23    72 1   
    54    23   106 1   
    55    24    51 1   
    56    24    73 1   
    57    24   107 1   
    58    25    26 ar  
    59    25    74 1   
    60    26    27 ar  
    61    26    54 1   
    62    27    28 ar  
    63    27   108 1   
    64    28    75 1   
    65    29    76 1   
    66    29    77 1   
    67    29    78 1   
    68    29   108 1   
    69    30    31 ar  
    70    30    79 1   
    71    31    32 ar  
    72    31    80 1   
    73    32    33 ar  
    74    32    81 1   
    75    33    82 1   
    76    34    35 1   
    77    34    54 1   
    78    34    83 1   
    79    34    84 1   
    80    35    55 1   
    81    35    85 1   
    82    35    86 1   
    83    36    37 1   
    84    36    55 1   
    85    36    87 1   
    86    36    88 1   
    87    37    56 1   
    88    37    89 1   
    89    37    90 1   
    90    38    39 1   
    91    38    56 1   
    92    38    91 1   
    93    38    92 1   
    94    39    57 1   
    95    39    93 1   
    96    39    94 1   
    97    40    57 1   
    98    40    95 1   
    99    40    96 1   
   100    40    97 1   
   101    41    42 ar  
   102    42    98 1   
   103    43    44 1   
   104    43    52 2   
   105    44    45 1   
   106    44    99 1   
   107    44   100 1   
   108    45   101 1   
   109    45   102 1   
   110    45   103 1   
   111    46   104 1   
   112    46   109 1   
   113    48    49 1   
   114    49    50 2   
   115    53   109 2   
@<TRIPOS>SUBSTRUCTURE
     1 D6T         1 TEMP              0 ****  ****    0 ROOT
