@<TRIPOS>MOLECULE
D6T
  109   115     1     0     0
SMALL
bcc


@<TRIPOS>ATOM
      1 C1           7.6060    -2.4430     1.6570 ca         1 D6T      -0.067000
      2 C2           8.6840    -1.6880     1.1860 ca         1 D6T      -0.238600
      3 C3           8.4010    -0.4720     0.5110 ca         1 D6T       0.145600
      4 C4           7.0720    -0.0820     0.3420 ca         1 D6T      -0.161000
      5 C11         10.8000     2.0090    -0.9360 ca         1 D6T       0.371800
      6 C12         13.0650     1.6700    -0.9070 ca         1 D6T       0.398600
      7 C13         13.3030     2.9030    -1.5670 ca         1 D6T      -0.133300
      8 C14         12.1810     3.6890    -1.9070 ca         1 D6T      -0.090000
      9 C15         10.9260     3.2490    -1.5940 ca         1 D6T      -0.200300
     10 C16          4.6490    -0.4190     0.6130 cc         1 D6T       0.311800
     11 C17          3.4690    -1.0330     0.9610 cd         1 D6T      -0.216600
     12 C18          1.1130    -0.3250     0.6200 ca         1 D6T      -0.005200
     13 C19          0.3060     0.1550    -0.4020 ca         1 D6T      -0.116500
     14 C20         -1.0690     0.0220    -0.2950 ca         1 D6T      -0.115500
     15 C21         -1.6550    -0.5930     0.8080 ca         1 D6T      -0.070300
     16 C22         -0.8200    -1.0710     1.8150 ca         1 D6T      -0.115500
     17 C23          0.5560    -0.9350     1.7340 ca         1 D6T      -0.116500
     18 C24         -3.1430    -0.7800     0.8930 c3         1 D6T      -0.036100
     19 C25         -3.5430    -2.1690     0.3910 c3         1 D6T       0.170800
     20 C26         -5.7470    -1.6610    -0.4120 c6         1 D6T       0.214100
     21 C27         -7.2110    -2.0120    -0.3690 ca         1 D6T      -0.075300
     22 C28         -7.6550    -3.1880     0.2050 ca         1 D6T      -0.065300
     23 C29         -6.6760    -4.1380     0.8360 c6         1 D6T      -0.023100
     24 C30         -5.2570    -3.8520     0.3780 c6         1 D6T       0.168800
     25 C31         -8.1340    -1.1380    -0.9560 ca         1 D6T      -0.190000
     26 C32         -9.4850    -1.4240    -0.9690 ca         1 D6T       0.120100
     27 C33         -9.9410    -2.6210    -0.3760 ca         1 D6T       0.114100
     28 C34         -9.0240    -3.4800     0.2000 ca         1 D6T      -0.188000
     29 C35        -11.7880    -3.9940     0.1770 c3         1 D6T       0.122700
     30 C36         14.1580     0.8500    -0.5490 ca         1 D6T      -0.156300
     31 C37         15.4340     1.2470    -0.8390 ca         1 D6T      -0.125000
     32 C38         15.6730     2.4750    -1.4950 ca         1 D6T      -0.116000
     33 C39         14.6320     3.2870    -1.8530 ca         1 D6T      -0.116000
     34 C40        -10.0520     0.5850    -2.0970 c3         1 D6T       0.137400
     35 C41        -11.2840     1.2700    -2.6290 c3         1 D6T       0.139400
     36 C42        -13.2820     2.2990    -1.9680 c3         1 D6T       0.139400
     37 C43        -14.1490     2.5810    -0.7680 c3         1 D6T       0.138400
     38 C44        -14.2260     3.7480     1.2590 c3         1 D6T       0.138400
     39 C45        -13.4180     4.6280     2.1780 c3         1 D6T       0.135400
     40 C46        -12.4030     6.7220     2.3590 c3         1 D6T       0.122700
     41 C5           6.0230    -0.8600     0.8190 ca         1 D6T      -0.042500
     42 C6           6.2970    -2.0530     1.4850 ca         1 D6T      -0.176000
     43 C7          10.0640    -2.1900     1.4070 c          1 D6T       0.591700
     44 C8          10.2550    -3.4590     2.2050 c3         1 D6T      -0.172400
     45 C9          11.7090    -3.8590     2.3800 c3         1 D6T      -0.079100
     46 N1           9.4530     0.2960     0.0350 ns         1 D6T      -0.463100
     47 N2          11.8160     1.2580    -0.6100 nb         1 D6T      -0.652000
     48 N3           2.5180    -0.1900     0.5240 na         1 D6T       0.170300
     49 N4           3.0610     0.8760    -0.0540 nd         1 D6T      -0.185800
     50 N5           4.3340     0.7440    -0.0060 nc         1 D6T      -0.335000
     51 N6          -4.9610    -2.4380     0.5260 n3         1 D6T      -0.714600
     52 O1          11.0370    -1.6030     0.9650 o          1 D6T      -0.544100
     53 O2           8.4380     2.1610    -0.8410 o          1 D6T      -0.572100
     54 O4         -10.4410    -0.6420    -1.5100 os         1 D6T      -0.291900
     55 O5         -12.1320     1.6000    -1.5610 os         1 D6T      -0.385600
     56 O6         -13.4710     3.4390     0.1150 os         1 D6T      -0.388600
     57 O7         -13.1740     5.8640     1.5580 os         1 D6T      -0.396600
     58 H1           7.7910    -3.3720     2.1750 ha         1 D6T       0.128000
     59 H2           6.8440     0.8360    -0.1710 ha         1 D6T       0.192000
     60 H3          12.3250     4.6350    -2.4150 ha         1 D6T       0.141000
     61 H4          10.0500     3.8310    -1.8420 ha         1 D6T       0.167000
     62 H5           3.2420    -1.9690     1.4410 h4         1 D6T       0.188000
     63 H6           0.7420     0.6220    -1.2740 ha         1 D6T       0.152000
     64 H7          -1.6940     0.4040    -1.0930 ha         1 D6T       0.140000
     65 H8          -1.2500    -1.5440     2.6900 ha         1 D6T       0.140000
     66 H9           1.1800    -1.2900     2.5450 ha         1 D6T       0.152000
     67 H10         -3.4770    -0.6710     1.9280 hc         1 D6T       0.060200
     68 H11         -3.6370     0.0010     0.3120 hc         1 D6T       0.060200
     69 H12         -3.2010    -2.2920    -0.6520 h1         1 D6T       0.032700
     70 H13         -3.0040    -2.9130     0.9830 h1         1 D6T       0.032700
     71 H14         -5.3800    -1.8000    -1.4460 h1         1 D6T       0.038700
     72 H15         -6.7280    -4.0540     1.9260 hc         1 D6T       0.053700
     73 H16         -4.5550    -4.4240     0.9880 h1         1 D6T       0.033200
     74 H17         -7.7650    -0.2220    -1.3990 ha         1 D6T       0.133000
     75 H18         -9.3530    -4.4070     0.6530 ha         1 D6T       0.134000
     76 H19        -12.8660    -3.9630     0.0370 h1         1 D6T       0.038367
     77 H20        -11.4000    -4.9040    -0.2870 h1         1 D6T       0.038367
     78 H21        -11.5740    -4.0280     1.2490 h1         1 D6T       0.038367
     79 H22         13.9570    -0.0870    -0.0450 ha         1 D6T       0.158000
     80 H23         16.2720     0.6190    -0.5660 ha         1 D6T       0.136000
     81 H24         16.6910     2.7720    -1.7120 ha         1 D6T       0.134000
     82 H25         14.8140     4.2280    -2.3560 ha         1 D6T       0.135000
     83 H26         -9.3560     0.4210    -2.9270 h1         1 D6T       0.041200
     84 H27         -9.5500     1.2260    -1.3630 h1         1 D6T       0.041200
     85 H28        -10.9570     2.1670    -3.1720 h1         1 D6T       0.030700
     86 H29        -11.7920     0.6220    -3.3570 h1         1 D6T       0.030700
     87 H30        -13.8720     1.7120    -2.6850 h1         1 D6T       0.028700
     88 H31        -13.0120     3.2400    -2.4690 h1         1 D6T       0.028700
     89 H32        -15.0860     3.0340    -1.1190 h1         1 D6T       0.028700
     90 H33        -14.4180     1.6380    -0.2700 h1         1 D6T       0.028700
     91 H34        -14.5010     2.8370     1.8090 h1         1 D6T       0.026700
     92 H35        -15.1670     4.2490     0.9880 h1         1 D6T       0.026700
     93 H36        -13.9810     4.7570     3.1130 h1         1 D6T       0.029200
     94 H37        -12.4760     4.1270     2.4430 h1         1 D6T       0.029200
     95 H38        -12.9010     6.9590     3.3070 h1         1 D6T       0.027033
     96 H39        -11.4220     6.2910     2.5960 h1         1 D6T       0.027033
     97 H40        -12.2480     7.6500     1.8110 h1         1 D6T       0.027033
     98 H41          5.5000    -2.6760     1.8690 ha         1 D6T       0.130000
     99 H42          9.7800    -3.3270     3.1820 hc         1 D6T       0.061700
    100 H43          9.6980    -4.2660     1.7200 hc         1 D6T       0.061700
    101 H44         12.1930    -4.0620     1.4260 hc         1 D6T       0.041033
    102 H45         12.2830    -3.0870     2.8920 hc         1 D6T       0.041033
    103 H46         11.7660    -4.7670     2.9790 hc         1 D6T       0.041033
    104 H47         10.3810    -0.1030     0.1810 hn         1 D6T       0.386500
    105 H48         -5.6330    -0.5970    -0.1920 h1         1 D6T       0.038700
    106 H49         -6.9390    -5.1700     0.5930 hc         1 D6T       0.053700
    107 H50         -5.1220    -4.1890    -0.6640 h1         1 D6T       0.033200
    108 O3         -11.2720    -2.8270    -0.4280 os         1 D6T      -0.294900
    109 C10          9.4280     1.5020    -0.5780 c          1 D6T       0.580600
@<TRIPOS>BOND
     1     1     2 ar  
     2     1    42 ar  
     3     1    58 1   
     4     2     3 ar  
     5     2    43 1   
     6     3     4 ar  
     7     3    46 1   
     8     4    41 ar  
     9     4    59 1   
    10     5     9 ar  
    11     5    47 ar  
    12     5   109 1   
    13     6     7 ar  
    14     6    30 ar  
    15     6    47 ar  
    16     7     8 ar  
    17     7    33 ar  
    18     8     9 ar  
    19     8    60 1   
    20     9    61 1   
    21    10    11 2   
    22    10    41 1   
    23    10    50 1   
    24    11    48 1   
    25    11    62 1   
    26    12    13 ar  
    27    12    17 ar  
    28    12    48 1   
    29    13    14 ar  
    30    13    63 1   
    31    14    15 ar  
    32    14    64 1   
    33    15    16 ar  
    34    15    18 1   
    35    16    17 ar  
    36    16    65 1   
    37    17    66 1   
    38    18    19 1   
    39    18    67 1   
    40    18    68 1   
    41    19    51 1   
    42    19    69 1   
    43    19    70 1   
    44    20    21 1   
    45    20    51 1   
    46    20    71 1   
    47    20   105 1   
    48    21    22 ar  
    49    21    25 ar  
    50    22    23 1   
    51    22    28 ar  
    52    23    24 1   
    53    23    72 1   
    54    23   106 1   
    55    24    51 1   
    56    24    73 1   
    57    24   107 1   
    58    25    26 ar  
    59    25    74 1   
    60    26    27 ar  
    61    26    54 1   
    62    27    28 ar  
    63    27   108 1   
    64    28    75 1   
    65    29    76 1   
    66    29    77 1   
    67    29    78 1   
    68    29   108 1   
    69    30    31 ar  
    70    30    79 1   
    71    31    32 ar  
    72    31    80 1   
    73    32    33 ar  
    74    32    81 1   
    75    33    82 1   
    76    34    35 1   
    77    34    54 1   
    78    34    83 1   
    79    34    84 1   
    80    35    55 1   
    81    35    85 1   
    82    35    86 1   
    83    36    37 1   
    84    36    55 1   
    85    36    87 1   
    86    36    88 1   
    87    37    56 1   
    88    37    89 1   
    89    37    90 1   
    90    38    39 1   
    91    38    56 1   
    92    38    91 1   
    93    38    92 1   
    94    39    57 1   
    95    39    93 1   
    96    39    94 1   
    97    40    57 1   
    98    40    95 1   
    99    40    96 1   
   100    40    97 1   
   101    41    42 ar  
   102    42    98 1   
   103    43    44 1   
   104    43    52 2   
   105    44    45 1   
   106    44    99 1   
   107    44   100 1   
   108    45   101 1   
   109    45   102 1   
   110    45   103 1   
   111    46   104 1   
   112    46   109 1   
   113    48    49 1   
   114    49    50 2   
   115    53   109 2   
@<TRIPOS>SUBSTRUCTURE
     1 D6T         1 TEMP              0 ****  ****    0 ROOT
