@<TRIPOS>MOLECULE
D6U
   47    51     1     0     0
SMALL
No Charge or Current Charge


@<TRIPOS>ATOM
      1 C4         -12.1520     7.9620    -0.4130 ca         1 D6U      -0.009000
      2 C14         -4.5320     6.9970     0.8410 ca         1 D6U       0.143100
      3 C5         -11.5620     8.8770    -1.3070 ca         1 D6U      -0.199000
      4 C6         -10.1700     8.8090    -1.6000 ca         1 D6U       0.155100
      5 C11         -6.9600     7.4620    -0.5310 ca         1 D6U       0.206300
      6 C7         -11.6850     5.9030     1.1140 c          1 D6U       0.325800
      7 C8          -9.4040     5.8870     0.7490 cc         1 D6U       0.074700
      8 C9          -8.0660     5.7210     1.0270 cd         1 D6U      -0.143000
      9 C10         -6.9250     6.5120     0.5280 ca         1 D6U      -0.005000
     10 C12         -5.7860     8.1550    -0.8840 ca         1 D6U      -0.075000
     11 C13         -4.5790     7.9390    -0.2020 ca         1 D6U      -0.183000
     12 N1         -10.4710     5.2500     1.3800 n          1 D6U      -0.225700
     13 N2          -0.4230     7.7730     3.0100 nb         1 D6U      -0.680000
     14 C3         -11.3230     7.0130     0.1940 ca         1 D6U      -0.162000
     15 C1          -9.3510     7.8370    -0.9570 ca         1 D6U       0.245300
     16 C15         -5.6940     6.2940     1.1880 ca         1 D6U      -0.134000
     17 C16        -10.3720     4.0990     2.2970 c3         1 D6U       0.065900
     18 C17        -10.3280    10.6730    -3.2250 c3         1 D6U       0.144900
     19 C18         -2.1280     7.3930     1.2680 c3         1 D6U       0.112300
     20 C19         -1.0390     6.8690     2.2040 ca         1 D6U       0.342300
     21 C2          -9.9530     6.9680    -0.0400 ca         1 D6U      -0.068800
     22 C20          0.5470     7.3280     3.8420 ca         1 D6U       0.342900
     23 C21          0.9420     5.9810     3.9040 ca         1 D6U      -0.163000
     24 C22          0.3120     5.0430     3.0710 ca         1 D6U      -0.076000
     25 C23         -0.6960     5.5010     2.2060 ca         1 D6U      -0.133000
     26 O1          -8.0410     7.6820    -1.3560 os         1 D6U      -0.485600
     27 O2         -12.7930     5.6230     1.5430 o          1 D6U      -0.315000
     28 O3          -9.5830     9.6650    -2.5200 os         1 D6U      -0.319100
     29 O4          -3.3780     6.7260     1.5470 os         1 D6U      -0.350100
     30 H1         -13.2210     7.9840    -0.2100 ha         1 D6U       0.136000
     31 H2         -12.2030     9.6120    -1.7850 ha         1 D6U       0.125000
     32 H3          -7.8270     4.9310     1.7300 ha         1 D6U       0.121000
     33 H4          -5.8170     8.8610    -1.7100 ha         1 D6U       0.132000
     34 H5          -3.6980     8.4980    -0.5050 ha         1 D6U       0.126000
     35 H6          -5.6360     5.5730     2.0000 ha         1 D6U       0.126000
     36 H7          -9.6780     3.3560     1.8850 h1         1 D6U       0.049367
     37 H8         -10.0020     4.4390     3.2720 h1         1 D6U       0.049367
     38 H9         -11.3550     3.6290     2.4280 h1         1 D6U       0.049367
     39 H10         -9.6660    11.2330    -3.8980 h1         1 D6U       0.045367
     40 H11        -11.1230    10.2200    -3.8300 h1         1 D6U       0.045367
     41 H12        -10.7800    11.3870    -2.5240 h1         1 D6U       0.045367
     42 H13         -2.2340     8.4780     1.4000 h1         1 D6U       0.058200
     43 H14         -1.8160     7.2070     0.2320 h1         1 D6U       0.058200
     44 H15          1.0220     8.0750     4.4780 h4         1 D6U       0.020100
     45 H16          1.7280     5.6760     4.5900 ha         1 D6U       0.125000
     46 H17          0.5950     3.9930     3.0940 ha         1 D6U       0.120000
     47 H18         -1.2110     4.8100     1.5450 ha         1 D6U       0.139000
@<TRIPOS>BOND
     1     1     3 ar  
     2     1    14 ar  
     3     1    30 1   
     4     2    11 ar  
     5     2    16 ar  
     6     2    29 1   
     7     3     4 ar  
     8     3    31 1   
     9     4    15 ar  
    10     4    28 1   
    11     5     9 ar  
    12     5    10 ar  
    13     5    26 1   
    14     6    12 1   
    15     6    14 1   
    16     6    27 2   
    17     7     8 2   
    18     7    12 1   
    19     7    21 1   
    20     8     9 1   
    21     8    32 1   
    22     9    16 ar  
    23    10    11 ar  
    24    10    33 1   
    25    11    34 1   
    26    12    17 1   
    27    13    20 ar  
    28    13    22 ar  
    29    14    21 ar  
    30    15    21 ar  
    31    15    26 1   
    32    16    35 1   
    33    17    36 1   
    34    17    37 1   
    35    17    38 1   
    36    18    28 1   
    37    18    39 1   
    38    18    40 1   
    39    18    41 1   
    40    19    20 1   
    41    19    29 1   
    42    19    42 1   
    43    19    43 1   
    44    20    25 ar  
    45    22    23 ar  
    46    22    44 1   
    47    23    24 ar  
    48    23    45 1   
    49    24    25 ar  
    50    24    46 1   
    51    25    47 1   
@<TRIPOS>SUBSTRUCTURE
     1 D6U         1 TEMP              0 ****  ****    0 ROOT
