@<TRIPOS>MOLECULE
D6U
   47    51     1     0     0
SMALL
abcg2


@<TRIPOS>ATOM
      1 C4         -12.0130     8.0050    -0.3190 ca         1 D6U      -0.009000
      2 C14         -4.5770     6.9490     0.7800 ca         1 D6U       0.143100
      3 C5         -11.4090     8.9330    -1.1620 ca         1 D6U      -0.199000
      4 C6         -10.0530     8.8380    -1.4980 ca         1 D6U       0.155100
      5 C11         -6.9570     7.3850    -0.6020 ca         1 D6U       0.206300
      6 C7         -11.5630     5.8320     1.0420 c          1 D6U       0.325800
      7 C8          -9.3110     5.7820     0.6010 cc         1 D6U       0.074700
      8 C9          -8.0120     5.4870     0.7520 cd         1 D6U      -0.143000
      9 C10         -6.9030     6.3450     0.3430 ca         1 D6U      -0.005000
     10 C12         -5.8580     8.1910    -0.8140 ca         1 D6U      -0.075000
     11 C13         -4.6600     7.9890    -0.1380 ca         1 D6U      -0.183000
     12 N1         -10.3850     5.1290     1.1930 n          1 D6U      -0.225700
     13 N2          -0.0700     7.5510     2.0810 nb         1 D6U      -0.680000
     14 C3         -11.2290     7.0010     0.2080 ca         1 D6U      -0.162000
     15 C1          -9.2780     7.7880    -0.9740 ca         1 D6U       0.245300
     16 C15         -5.6940     6.1520     1.0100 ca         1 D6U      -0.134000
     17 C16        -10.2450     3.9540     2.0150 c3         1 D6U       0.065900
     18 C17        -10.1480    10.7190    -2.9370 c3         1 D6U       0.144900
     19 C18         -2.3080     7.4020     1.2950 c3         1 D6U       0.112300
     20 C19         -1.2180     6.8900     2.1950 ca         1 D6U       0.342300
     21 C2          -9.8750     6.9250    -0.0920 ca         1 D6U      -0.068800
     22 C20          0.9550     7.1770     2.8330 ca         1 D6U       0.342900
     23 C21          0.8930     6.1260     3.7370 ca         1 D6U      -0.163000
     24 C22         -0.3040     5.4400     3.8520 ca         1 D6U      -0.076000
     25 C23         -1.3840     5.8240     3.0690 ca         1 D6U      -0.133000
     26 O1          -8.0230     7.5980    -1.4500 os         1 D6U      -0.485600
     27 O2         -12.6390     5.5140     1.5050 o          1 D6U      -0.315000
     28 O3          -9.4160     9.6680    -2.3290 os         1 D6U      -0.319100
     29 O4          -3.4750     6.6420     1.4930 os         1 D6U      -0.350100
     30 H1         -13.0700     8.0770    -0.1010 ha         1 D6U       0.136000
     31 H2         -12.0140     9.7280    -1.5740 ha         1 D6U       0.125000
     32 H3          -7.7380     4.6230     1.3460 ha         1 D6U       0.121000
     33 H4          -5.9270     8.9870    -1.5450 ha         1 D6U       0.132000
     34 H5          -3.8260     8.6430    -0.3490 ha         1 D6U       0.126000
     35 H6          -5.6220     5.3580     1.7440 ha         1 D6U       0.126000
     36 H7          -9.7180     3.1710     1.4730 h1         1 D6U       0.049367
     37 H8          -9.6970     4.1770     2.9320 h1         1 D6U       0.049367
     38 H9         -11.2320     3.5860     2.2790 h1         1 D6U       0.049367
     39 H10         -9.4440    11.2550    -3.5680 h1         1 D6U       0.045367
     40 H11        -10.9620    10.3360    -3.5560 h1         1 D6U       0.045367
     41 H12        -10.5560    11.4100    -2.1960 h1         1 D6U       0.045367
     42 H13         -2.4860     8.4610     1.5170 h1         1 D6U       0.058200
     43 H14         -1.9700     7.3410     0.2530 h1         1 D6U       0.058200
     44 H15          1.8740     7.7400     2.7120 h4         1 D6U       0.020100
     45 H16          1.7580     5.8600     4.3290 ha         1 D6U       0.125000
     46 H17         -0.4010     4.6130     4.5430 ha         1 D6U       0.120000
     47 H18         -2.3260     5.3010     3.1440 ha         1 D6U       0.139000
@<TRIPOS>BOND
     1     1     3 ar  
     2     1    14 ar  
     3     1    30 1   
     4     2    11 ar  
     5     2    16 ar  
     6     2    29 1   
     7     3     4 ar  
     8     3    31 1   
     9     4    15 ar  
    10     4    28 1   
    11     5     9 ar  
    12     5    10 ar  
    13     5    26 1   
    14     6    12 1   
    15     6    14 1   
    16     6    27 2   
    17     7     8 2   
    18     7    12 1   
    19     7    21 1   
    20     8     9 1   
    21     8    32 1   
    22     9    16 ar  
    23    10    11 ar  
    24    10    33 1   
    25    11    34 1   
    26    12    17 1   
    27    13    20 ar  
    28    13    22 ar  
    29    14    21 ar  
    30    15    21 ar  
    31    15    26 1   
    32    16    35 1   
    33    17    36 1   
    34    17    37 1   
    35    17    38 1   
    36    18    28 1   
    37    18    39 1   
    38    18    40 1   
    39    18    41 1   
    40    19    20 1   
    41    19    29 1   
    42    19    42 1   
    43    19    43 1   
    44    20    25 ar  
    45    22    23 ar  
    46    22    44 1   
    47    23    24 ar  
    48    23    45 1   
    49    24    25 ar  
    50    24    46 1   
    51    25    47 1   
@<TRIPOS>SUBSTRUCTURE
     1 D6U         1 TEMP              0 ****  ****    0 ROOT
