@<TRIPOS>MOLECULE
D6V
   27    29     1     0     0
SMALL
No Charge or Current Charge


@<TRIPOS>ATOM
      1 C4          -1.9400     8.9230     7.3620 ca         1 D6V      -0.079200
      2 C5          -2.8600     9.9760     7.4210 ca         1 D6V      -0.116000
      3 C6          -0.2390     7.5280     7.5940 cc         1 D6V       0.427800
      4 N1          -1.0550     6.9310     6.7020 nd         1 D6V      -0.575100
      5 C7           1.0760     6.9850     8.1110 c5         1 D6V      -0.126000
      6 C8           2.2630     8.0070     8.0050 c5         1 D6V      -0.117400
      7 N2           2.3750     6.9120    10.1000 n7         1 D6V      -0.826400
      8 C9           2.7080     8.2060     9.4760 c5         1 D6V       0.132800
      9 C10          0.9960     6.6690     9.6300 c5         1 D6V       0.138800
     10 C3          -2.1160     7.8240     6.5710 ca         1 D6V       0.069400
     11 C2          -3.2560     7.7010     5.7630 ca         1 D6V      -0.048000
     12 C1          -4.2120     8.7420     5.7910 ca         1 D6V      -0.136000
     13 N           -0.7600     8.7510     8.0140 na         1 D6V      -0.315600
     14 C           -4.0150     9.8750     6.6170 ca         1 D6V      -0.093000
     15 H1          -2.6930    10.8400     8.0610 ha         1 D6V       0.116000
     16 H3           1.3310     6.0720     7.5600 hc         1 D6V       0.088700
     17 H4           3.0810     7.5860     7.4070 hc         1 D6V       0.056200
     18 H5           1.9870     8.9560     7.5310 hc         1 D6V       0.056200
     19 H6           2.9880     6.1920     9.6960 hn         1 D6V       0.405000
     20 H8           3.7770     8.4460     9.5600 h1         1 D6V       0.055200
     21 H9           2.1420     9.0210     9.9520 h1         1 D6V       0.055200
     22 H10          0.2950     7.3410    10.1480 h1         1 D6V       0.061700
     23 H11          0.6680     5.6380     9.8230 h1         1 D6V       0.061700
     24 H12         -3.3980     6.8270     5.1330 ha         1 D6V       0.128000
     25 H13         -5.1050     8.6710     5.1740 ha         1 D6V       0.114000
     26 H14         -0.3290     9.3830     8.6740 hn         1 D6V       0.356000
     27 H15         -4.7560    10.6720     6.6310 ha         1 D6V       0.112000
@<TRIPOS>BOND
     1     1     2 ar  
     2     1    10 ar  
     3     1    13 1   
     4     2    14 ar  
     5     2    15 1   
     6     3     4 2   
     7     3     5 1   
     8     3    13 1   
     9     4    10 1   
    10     5     6 1   
    11     5     9 1   
    12     5    16 1   
    13     6     8 1   
    14     6    17 1   
    15     6    18 1   
    16     7     8 1   
    17     7     9 1   
    18     7    19 1   
    19     8    20 1   
    20     8    21 1   
    21     9    22 1   
    22     9    23 1   
    23    10    11 ar  
    24    11    12 ar  
    25    11    24 1   
    26    12    14 ar  
    27    12    25 1   
    28    13    26 1   
    29    14    27 1   
@<TRIPOS>SUBSTRUCTURE
     1 D6V         1 TEMP              0 ****  ****    0 ROOT
