@<TRIPOS>MOLECULE
D6V
   27    29     1     0     0
SMALL
bcc


@<TRIPOS>ATOM
      1 C4          -1.9420     8.9550     7.3860 ca         1 D6V      -0.079200
      2 C5          -2.8770     9.9820     7.4360 ca         1 D6V      -0.134000
      3 C6          -0.2430     7.5620     7.5860 cc         1 D6V       0.427800
      4 N1          -1.0250     6.9800     6.7160 nd         1 D6V      -0.575100
      5 C7           1.0460     7.0210     8.0910 c5         1 D6V      -0.126000
      6 C8           2.2390     8.0060     7.9830 c5         1 D6V      -0.117400
      7 N2           2.3140     6.9780    10.1490 n7         1 D6V      -0.771200
      8 C9           2.7150     8.1810     9.4360 c5         1 D6V       0.132800
      9 C10          1.0050     6.6670     9.6070 c5         1 D6V       0.138800
     10 C3          -2.1000     7.8250     6.5650 ca         1 D6V       0.069400
     11 C2          -3.2330     7.7060     5.7610 ca         1 D6V      -0.066000
     12 C1          -4.1710     8.7240     5.8050 ca         1 D6V      -0.154000
     13 N           -0.7470     8.7500     8.0230 na         1 D6V      -0.265300
     14 C           -3.9940     9.8450     6.6300 ca         1 D6V      -0.111000
     15 H1          -2.7410    10.8460     8.0720 ha         1 D6V       0.134000
     16 H3           1.2550     6.1190     7.5160 hc         1 D6V       0.088700
     17 H4           3.0260     7.5640     7.3720 hc         1 D6V       0.056200
     18 H5           1.9690     8.9540     7.5150 hc         1 D6V       0.056200
     19 H6           2.9540     6.2290     9.9100 hn         1 D6V       0.349800
     20 H8           3.7890     8.3440     9.5180 h1         1 D6V       0.055200
     21 H9           2.2180     9.0430     9.8920 h1         1 D6V       0.055200
     22 H10          0.2550     7.2810    10.1150 h1         1 D6V       0.061700
     23 H11          0.7400     5.6250     9.7810 h1         1 D6V       0.061700
     24 H12         -3.3730     6.8420     5.1240 ha         1 D6V       0.146000
     25 H13         -5.0600     8.6570     5.1920 ha         1 D6V       0.132000
     26 H14         -0.3180     9.3690     8.6910 hn         1 D6V       0.305700
     27 H15         -4.7490    10.6200     6.6360 ha         1 D6V       0.130000
@<TRIPOS>BOND
     1     1     2 ar  
     2     1    10 ar  
     3     1    13 1   
     4     2    14 ar  
     5     2    15 1   
     6     3     4 2   
     7     3     5 1   
     8     3    13 1   
     9     4    10 1   
    10     5     6 1   
    11     5     9 1   
    12     5    16 1   
    13     6     8 1   
    14     6    17 1   
    15     6    18 1   
    16     7     8 1   
    17     7     9 1   
    18     7    19 1   
    19     8    20 1   
    20     8    21 1   
    21     9    22 1   
    22     9    23 1   
    23    10    11 ar  
    24    11    12 ar  
    25    11    24 1   
    26    12    14 ar  
    27    12    25 1   
    28    13    26 1   
    29    14    27 1   
@<TRIPOS>SUBSTRUCTURE
     1 D6V         1 TEMP              0 ****  ****    0 ROOT
