@<TRIPOS>MOLECULE
D6W
   59    63     1     0     0
SMALL
No Charge or Current Charge


@<TRIPOS>ATOM
      1 C4           0.1090     0.3180    -0.3630 c6         1 D6W      -0.109400
      2 C5          -1.0320    -0.5510     0.2230 c6         1 D6W       0.089000
      3 C8           3.7420     0.8410     0.3670 c5         1 D6W       0.401200
      4 C10          2.1320    -0.8710     0.7890 c          1 D6W       0.568000
      5 C13          1.4730     3.5130    -0.6680 ca         1 D6W      -0.187000
      6 C15          1.7590     4.2410    -2.9710 ca         1 D6W      -0.158000
      7 C17          2.6990     2.1230    -2.2330 ca         1 D6W      -0.187000
      8 C20         -3.8990     0.2200     0.9420 ca         1 D6W      -0.161600
      9 C21         -4.0970    -1.1290     0.5580 ca         1 D6W      -0.016000
     10 C22         -5.2590    -1.4500    -0.1560 ca         1 D6W      -0.159000
     11 C24         -6.0580     0.8100    -0.0930 ca         1 D6W      -0.087000
     12 C26         -5.7160    -2.6930    -0.6700 cc         1 D6W      -0.190100
     13 C1          -0.3440     0.0910     2.5180 c6         1 D6W       0.089000
     14 C2           0.7720     0.9990     1.9510 c6         1 D6W      -0.109400
     15 C3           1.3310     0.4760     0.5970 c5         1 D6W       0.187200
     16 N6          -1.4690    -0.0580     1.5580 n          1 D6W      -0.389800
     17 N7           2.4040     1.3890     0.0770 nh         1 D6W      -0.850400
     18 N9           3.4850    -0.5350     0.7610 n          1 D6W      -0.398800
     19 O11          1.7150    -2.0180     0.9180 o          1 D6W      -0.538000
     20 C12          2.1960     2.3400    -0.9380 ca         1 D6W       0.346000
     21 C14          1.2530     4.4650    -1.6790 ca         1 D6W      -0.067500
     22 C16          2.4820     3.0690    -3.2500 ca         1 D6W      -0.067500
     23 C18         -2.6850     0.6460     1.7370 c          1 D6W       0.605700
     24 O19         -2.7800     1.5270     2.5830 o          1 D6W      -0.595100
     25 C23         -6.2180    -0.5270    -0.4830 ca         1 D6W      -0.058000
     26 C25         -4.9010     1.1780     0.6270 ca         1 D6W      -0.068000
     27 N27         -6.9360    -2.4240    -1.2850 na         1 D6W       0.018500
     28 N28         -7.2920    -1.0710    -1.1900 nc         1 D6W      -0.283400
     29 C29          4.5390    -1.5760     0.8940 c3         1 D6W       0.022000
     30 C30          4.9260    -2.2910    -0.4190 c          1 D6W       0.570100
     31 O31          4.4480    -2.0090    -1.5110 o          1 D6W      -0.594100
     32 N32          5.8720    -3.2840    -0.2780 ns         1 D6W      -0.506900
     33 C33          6.3910    -4.0920    -1.3850 c3         1 D6W       0.094300
     34 H1           0.4440    -0.1100    -1.3180 hc         1 D6W       0.068450
     35 H2          -0.3050     1.3070    -0.5980 hc         1 D6W       0.068450
     36 H3          -1.8620    -0.5340    -0.4950 h1         1 D6W       0.071200
     37 H4          -0.7110    -1.5980     0.3120 h1         1 D6W       0.071200
     38 H5           4.3930     0.8110    -0.5160 h2         1 D6W       0.047700
     39 H6           4.2190     1.3390     1.2200 h2         1 D6W       0.047700
     40 H7           1.0860     3.6910     0.3300 ha         1 D6W       0.113500
     41 H8           1.5890     4.9750    -3.7560 ha         1 D6W       0.115000
     42 H9           3.2470     1.2120    -2.4570 ha         1 D6W       0.113500
     43 H10         -3.3820    -1.9070     0.8170 ha         1 D6W       0.124000
     44 H11         -6.8150     1.5520    -0.3380 ha         1 D6W       0.130000
     45 H12         -5.3000    -3.6950    -0.6530 h4         1 D6W       0.229000
     46 H13          0.0650    -0.9040     2.7450 h1         1 D6W       0.071200
     47 H14         -0.7030     0.5040     3.4710 h1         1 D6W       0.071200
     48 H15          0.3740     2.0130     1.8230 hc         1 D6W       0.068450
     49 H16          1.5870     1.0790     2.6840 hc         1 D6W       0.068450
     50 H17          0.6930     5.3720    -1.4620 ha         1 D6W       0.109500
     51 H18          2.8710     2.8940    -4.2510 ha         1 D6W       0.109500
     52 H19         -4.7760     2.2150     0.9320 ha         1 D6W       0.124000
     53 H20         -7.5400    -3.0910    -1.7600 hn         1 D6W       0.371000
     54 H21          5.4490    -1.1150     1.2970 h1         1 D6W       0.077700
     55 H22          4.2140    -2.3410     1.6100 h1         1 D6W       0.077700
     56 H23          6.2240    -3.4600     0.6570 hn         1 D6W       0.315500
     57 H24          5.5680    -4.6400    -1.8610 h1         1 D6W       0.043033
     58 H25          6.8710    -3.4390    -2.1260 h1         1 D6W       0.043033
     59 H26          7.1290    -4.8080    -1.0020 h1         1 D6W       0.043033
@<TRIPOS>BOND
     1     1     2 1   
     2     1    15 1   
     3     1    34 1   
     4     1    35 1   
     5     2    16 1   
     6     2    36 1   
     7     2    37 1   
     8     3    17 1   
     9     3    18 1   
    10     3    38 1   
    11     3    39 1   
    12     4    15 1   
    13     4    18 1   
    14     4    19 2   
    15     5    20 ar  
    16     5    21 ar  
    17     5    40 1   
    18     6    21 ar  
    19     6    22 ar  
    20     6    41 1   
    21     7    20 ar  
    22     7    22 ar  
    23     7    42 1   
    24     8     9 ar  
    25     8    23 1   
    26     8    26 ar  
    27     9    10 ar  
    28     9    43 1   
    29    10    12 2   
    30    10    25 ar  
    31    11    25 ar  
    32    11    26 ar  
    33    11    44 1   
    34    12    27 1   
    35    12    45 1   
    36    13    14 1   
    37    13    16 1   
    38    13    46 1   
    39    13    47 1   
    40    14    15 1   
    41    14    48 1   
    42    14    49 1   
    43    15    17 1   
    44    16    23 1   
    45    17    20 1   
    46    18    29 1   
    47    21    50 1   
    48    22    51 1   
    49    23    24 2   
    50    25    28 2   
    51    26    52 1   
    52    27    28 1   
    53    27    53 1   
    54    29    30 1   
    55    29    54 1   
    56    29    55 1   
    57    30    31 2   
    58    30    32 1   
    59    32    33 1   
    60    32    56 1   
    61    33    57 1   
    62    33    58 1   
    63    33    59 1   
@<TRIPOS>SUBSTRUCTURE
     1 D6W         1 TEMP              0 ****  ****    0 ROOT
