@<TRIPOS>MOLECULE
D6W
   59    63     1     0     0
SMALL
bcc


@<TRIPOS>ATOM
      1 C4           0.3360    -0.4050    -0.0220 c6         1 D6W      -0.109400
      2 C5          -0.7260    -1.0920     0.8280 c6         1 D6W       0.089000
      3 C8           3.5620     0.6630    -0.2420 c5         1 D6W       0.401200
      4 C10          2.4390    -0.7250     1.2420 c          1 D6W       0.710500
      5 C13          0.4940     2.7720    -0.7090 ca         1 D6W      -0.205000
      6 C15          0.9790     4.4460    -2.3860 ca         1 D6W      -0.176000
      7 C17          2.6770     2.8700    -1.6980 ca         1 D6W      -0.205000
      8 C20         -3.3390     0.2540     0.6040 ca         1 D6W      -0.161600
      9 C21         -3.9430    -0.9720     0.7060 ca         1 D6W      -0.034000
     10 C22         -5.0110    -1.2600    -0.1660 ca         1 D6W      -0.159000
     11 C24         -4.8050     0.9510    -1.2220 ca         1 D6W      -0.105000
     12 C26         -5.8560    -2.3500    -0.3640 cc         1 D6W      -0.140100
     13 C1          -0.2260     0.2550     2.7590 c6         1 D6W       0.089000
     14 C2           0.8780     1.0380     2.0580 c6         1 D6W      -0.109400
     15 C3           1.4230     0.3210     0.8040 c5         1 D6W       0.187200
     16 N6          -1.2510    -0.1570     1.8130 n          1 D6W      -0.456800
     17 N7           2.2410     1.2000    -0.0200 nh         1 D6W      -0.712000
     18 N9           3.6220    -0.4360     0.6790 n          1 D6W      -0.465800
     19 O11          2.2170    -1.6640     1.9830 o          1 D6W      -0.613500
     20 C12          1.7990     2.2530    -0.7890 ca         1 D6W       0.207600
     21 C14          0.1020     3.8430    -1.4940 ca         1 D6W      -0.085500
     22 C16          2.2680     3.9440    -2.4740 ca         1 D6W      -0.085500
     23 C18         -2.2830     0.6870     1.5660 c          1 D6W       0.672700
     24 O19         -2.3970     1.7690     2.1280 o          1 D6W      -0.595100
     25 C23         -5.4390    -0.3100    -1.1350 ca         1 D6W      -0.058000
     26 C25         -3.7890     1.2160    -0.3510 ca         1 D6W      -0.086000
     27 N27         -6.6610    -1.9930    -1.3640 na         1 D6W       0.068800
     28 N28         -6.4540    -0.7820    -1.8610 nc         1 D6W      -0.283400
     29 C29          4.7140    -1.3570     0.6640 c3         1 D6W       0.022000
     30 C30          4.5260    -2.4160    -0.4240 c          1 D6W       0.637100
     31 O31          3.4890    -2.5030    -1.0620 o          1 D6W      -0.594100
     32 N32          5.5720    -3.2280    -0.5980 ns         1 D6W      -0.573900
     33 C33          5.5670    -4.3020    -1.5640 c3         1 D6W       0.094300
     34 H1           0.8160    -1.1320    -0.6820 hc         1 D6W       0.068450
     35 H2          -0.1670     0.3080    -0.6770 hc         1 D6W       0.068450
     36 H3          -1.5160    -1.4650     0.1830 h1         1 D6W       0.071200
     37 H4          -0.3150    -1.9510     1.3590 h1         1 D6W       0.071200
     38 H5           3.7090     0.3200    -1.2760 h2         1 D6W       0.047700
     39 H6           4.3430     1.3970    -0.0190 h2         1 D6W       0.047700
     40 H7          -0.2350     2.3560    -0.0310 ha         1 D6W       0.131500
     41 H8           0.6640     5.2830    -2.9940 ha         1 D6W       0.133000
     42 H9           3.6930     2.5200    -1.8150 ha         1 D6W       0.131500
     43 H10         -3.6240    -1.6960     1.4460 ha         1 D6W       0.142000
     44 H11         -5.1240     1.6860    -1.9490 ha         1 D6W       0.148000
     45 H12         -5.9280    -3.3110     0.1170 h4         1 D6W       0.179000
     46 H13          0.1720    -0.6460     3.2270 h1         1 D6W       0.071200
     47 H14         -0.6700     0.8610     3.5460 h1         1 D6W       0.071200
     48 H15          0.4940     2.0210     1.7890 hc         1 D6W       0.068450
     49 H16          1.7000     1.2180     2.7560 hc         1 D6W       0.068450
     50 H17         -0.9130     4.2080    -1.4000 ha         1 D6W       0.127500
     51 H18          2.9780     4.3880    -3.1610 ha         1 D6W       0.127500
     52 H19         -3.3020     2.1820    -0.3860 ha         1 D6W       0.142000
     53 H20         -7.3960    -2.5640    -1.7570 hn         1 D6W       0.320700
     54 H21          5.6490    -0.8150     0.5160 h1         1 D6W       0.077700
     55 H22          4.7870    -1.8490     1.6360 h1         1 D6W       0.077700
     56 H23          6.3980    -3.0930    -0.0380 hn         1 D6W       0.315500
     57 H24          4.7850    -5.0320    -1.3500 h1         1 D6W       0.043033
     58 H25          5.4210    -3.9290    -2.5780 h1         1 D6W       0.043033
     59 H26          6.5270    -4.8070    -1.5210 h1         1 D6W       0.043033
@<TRIPOS>BOND
     1     1     2 1   
     2     1    15 1   
     3     1    34 1   
     4     1    35 1   
     5     2    16 1   
     6     2    36 1   
     7     2    37 1   
     8     3    17 1   
     9     3    18 1   
    10     3    38 1   
    11     3    39 1   
    12     4    15 1   
    13     4    18 1   
    14     4    19 2   
    15     5    20 ar  
    16     5    21 ar  
    17     5    40 1   
    18     6    21 ar  
    19     6    22 ar  
    20     6    41 1   
    21     7    20 ar  
    22     7    22 ar  
    23     7    42 1   
    24     8     9 ar  
    25     8    23 1   
    26     8    26 ar  
    27     9    10 ar  
    28     9    43 1   
    29    10    12 2   
    30    10    25 ar  
    31    11    25 ar  
    32    11    26 ar  
    33    11    44 1   
    34    12    27 1   
    35    12    45 1   
    36    13    14 1   
    37    13    16 1   
    38    13    46 1   
    39    13    47 1   
    40    14    15 1   
    41    14    48 1   
    42    14    49 1   
    43    15    17 1   
    44    16    23 1   
    45    17    20 1   
    46    18    29 1   
    47    21    50 1   
    48    22    51 1   
    49    23    24 2   
    50    25    28 2   
    51    26    52 1   
    52    27    28 1   
    53    27    53 1   
    54    29    30 1   
    55    29    54 1   
    56    29    55 1   
    57    30    31 2   
    58    30    32 1   
    59    32    33 1   
    60    32    56 1   
    61    33    57 1   
    62    33    58 1   
    63    33    59 1   
@<TRIPOS>SUBSTRUCTURE
     1 D6W         1 TEMP              0 ****  ****    0 ROOT
