@<TRIPOS>MOLECULE
D6X
   42    45     1     0     0
SMALL
No Charge or Current Charge


@<TRIPOS>ATOM
      1 C22          7.6410     0.6580    -0.4150 ca         1 D6X      -0.134000
      2 C23          7.4600    -0.6940    -0.0830 ca         1 D6X      -0.090000
      3 C21          6.5310     1.5130    -0.5070 ca         1 D6X      -0.071000
      4 C17          4.1230     1.8670    -0.3580 ca         1 D6X      -0.030000
      5 C24          6.1660    -1.1910     0.1560 ca         1 D6X      -0.107000
      6 C16          2.8560     1.3240    -0.1110 ca         1 D6X      -0.209000
      7 C20          5.2360     1.0130    -0.2670 ca         1 D6X      -0.134000
      8 C19          5.0390    -0.3530     0.0690 ca         1 D6X       0.332000
      9 C15          2.7670    -0.0360     0.2100 ca         1 D6X       0.636900
     10 C8          -2.1960    -0.8240     0.3830 cc         1 D6X       0.540300
     11 C6          -4.0290     0.0800     0.8000 cd         1 D6X       0.419500
     12 C2          -6.1500     0.3200    -0.7280 cc         1 D6X      -0.234000
     13 C1          -5.0910    -0.3480    -1.3270 cd         1 D6X       0.014700
     14 C3          -6.0930     0.8400     0.6230 cc         1 D6X       0.416300
     15 C13         -5.0720    -0.9170    -2.7240 c3         1 D6X      -0.056800
     16 C14         -7.3230     1.5390     1.1270 c3         1 D6X      -0.154400
     17 C10         -0.7910    -1.2800     0.6360 c3         1 D6X      -0.098700
     18 C11          0.2370    -0.2250     0.2050 c3         1 D6X       0.237800
     19 N18          3.8070    -0.8610     0.3050 nb         1 D6X      -0.774000
     20 N7          -2.8760    -0.1520     1.3720 nc         1 D6X      -0.384300
     21 N9          -2.8150    -1.0420    -0.7760 nd         1 D6X      -0.596100
     22 N4          -5.0470     0.7500     1.4440 nd         1 D6X      -0.642000
     23 N5          -3.9960    -0.4440    -0.4680 na         1 D6X       0.080900
     24 N12          1.6030    -0.6910     0.4790 nu         1 D6X      -0.946100
     25 H1           8.6410     1.0440    -0.6000 ha         1 D6X       0.112000
     26 H2           8.3190    -1.3570    -0.0110 ha         1 D6X       0.111000
     27 H3           6.6780     2.5600    -0.7640 ha         1 D6X       0.109000
     28 H4           4.2360     2.9200    -0.6120 ha         1 D6X       0.115000
     29 H5           6.0340    -2.2380     0.4120 ha         1 D6X       0.126000
     30 H6           1.9670     1.9430    -0.1660 ha         1 D6X       0.125000
     31 H7          -7.0710     0.4680    -1.2820 ha         1 D6X       0.142000
     32 H8          -6.0230    -0.7430    -3.2400 hc         1 D6X       0.069700
     33 H9          -4.2770    -0.4580    -3.3250 hc         1 D6X       0.069700
     34 H10         -4.8970    -1.9990    -2.7050 hc         1 D6X       0.069700
     35 H11         -8.1830     0.8610     1.1150 hc         1 D6X       0.063033
     36 H12         -7.1930     1.8990     2.1550 hc         1 D6X       0.063033
     37 H13         -7.5610     2.4030     0.4970 hc         1 D6X       0.063033
     38 H14         -0.6630    -1.5020     1.7020 hc         1 D6X       0.071700
     39 H15         -0.6080    -2.2130     0.0920 hc         1 D6X       0.071700
     40 H16          0.1170    -0.0190    -0.8680 h1         1 D6X       0.053200
     41 H17          0.0420     0.7100     0.7510 h1         1 D6X       0.053200
     42 H18          1.7590    -1.6840     0.6270 hn         1 D6X       0.496000
@<TRIPOS>BOND
     1     1     2 ar  
     2     1     3 ar  
     3     1    25 1   
     4     2     5 ar  
     5     2    26 1   
     6     3     7 ar  
     7     3    27 1   
     8     4     6 ar  
     9     4     7 ar  
    10     4    28 1   
    11     5     8 ar  
    12     5    29 1   
    13     6     9 ar  
    14     6    30 1   
    15     7     8 ar  
    16     8    19 ar  
    17     9    19 ar  
    18     9    24 1   
    19    10    17 1   
    20    10    20 1   
    21    10    21 2   
    22    11    20 2   
    23    11    22 1   
    24    11    23 1   
    25    12    13 2   
    26    12    14 1   
    27    12    31 1   
    28    13    15 1   
    29    13    23 1   
    30    14    16 1   
    31    14    22 2   
    32    15    32 1   
    33    15    33 1   
    34    15    34 1   
    35    16    35 1   
    36    16    36 1   
    37    16    37 1   
    38    17    18 1   
    39    17    38 1   
    40    17    39 1   
    41    18    24 1   
    42    18    40 1   
    43    18    41 1   
    44    21    23 1   
    45    24    42 1   
@<TRIPOS>SUBSTRUCTURE
     1 D6X         1 TEMP              0 ****  ****    0 ROOT
