@<TRIPOS>MOLECULE
D6X
   42    45     1     0     0
SMALL
bcc


@<TRIPOS>ATOM
      1 C22          7.5810     0.9500    -0.1080 ca         1 D6X      -0.152000
      2 C23          7.4850    -0.4560    -0.1290 ca         1 D6X      -0.108000
      3 C21          6.4390     1.7060    -0.0420 ca         1 D6X      -0.089000
      4 C17          3.9590     1.8150     0.0750 ca         1 D6X      -0.048000
      5 C24          6.2650    -1.0800    -0.0830 ca         1 D6X      -0.190300
      6 C16          2.7700     1.1600     0.1190 ca         1 D6X      -0.292300
      7 C20          5.1740     1.0890     0.0060 ca         1 D6X      -0.199300
      8 C19          5.0720    -0.3240    -0.0150 ca         1 D6X       0.462600
      9 C15          2.7750    -0.2710     0.0930 ca         1 D6X       0.702200
     10 C8          -2.1330    -0.8860     0.0870 cc         1 D6X       0.540300
     11 C6          -3.8090     0.2800     0.5520 cd         1 D6X       0.419500
     12 C2          -6.2130     0.3170    -0.6280 cc         1 D6X      -0.317300
     13 C1          -5.2870    -0.5460    -1.1390 cd         1 D6X       0.065400
     14 C3          -5.8890     1.1470     0.4750 cc         1 D6X       0.481600
     15 C13         -5.4890    -1.4660    -2.2840 c3         1 D6X      -0.056800
     16 C14         -6.9150     2.0970     0.9990 c3         1 D6X      -0.154400
     17 C10         -0.7610    -1.4570     0.1500 c3         1 D6X      -0.098700
     18 C11          0.3010    -0.3680     0.0570 c3         1 D6X       0.237800
     19 N18          3.8870    -0.9710     0.0260 nb         1 D6X      -0.774000
     20 N7          -2.5670     0.0590     0.9420 nc         1 D6X      -0.384300
     21 N9          -3.0100    -1.2790    -0.8170 nd         1 D6X      -0.596100
     22 N4          -4.7090     1.1250     1.0530 nd         1 D6X      -0.642000
     23 N5          -4.0830    -0.5350    -0.5180 na         1 D6X       0.030200
     24 N12          1.6130    -0.9620     0.1500 nu         1 D6X      -0.890900
     25 H1           8.5520     1.4250    -0.1450 ha         1 D6X       0.130000
     26 H2           8.3880    -1.0500    -0.1810 ha         1 D6X       0.129000
     27 H3           6.4970     2.7880    -0.0260 ha         1 D6X       0.127000
     28 H4           3.9850     2.8970     0.0920 ha         1 D6X       0.133000
     29 H5           6.1940    -2.1600    -0.1000 ha         1 D6X       0.144000
     30 H6           1.8440     1.7150     0.1730 ha         1 D6X       0.143000
     31 H7          -7.1980     0.3620    -1.0690 ha         1 D6X       0.160000
     32 H8          -6.5030    -1.3750    -2.6640 hc         1 D6X       0.069700
     33 H9          -4.7900    -1.2390    -3.0890 hc         1 D6X       0.069700
     34 H10         -5.3160    -2.5000    -1.9840 hc         1 D6X       0.069700
     35 H11         -7.8770     1.6010     1.1300 hc         1 D6X       0.063033
     36 H12         -6.6020     2.5240     1.9490 hc         1 D6X       0.063033
     37 H13         -7.0690     2.9120     0.2890 hc         1 D6X       0.063033
     38 H14         -0.6420    -1.9990     1.0930 hc         1 D6X       0.071700
     39 H15         -0.6380    -2.1770    -0.6600 hc         1 D6X       0.071700
     40 H16          0.1770     0.1820    -0.8830 h1         1 D6X       0.053200
     41 H17          0.1520     0.3470     0.8690 h1         1 D6X       0.053200
     42 H18          1.6950    -1.9560     0.0050 hn         1 D6X       0.440800
@<TRIPOS>BOND
     1     1     2 ar  
     2     1     3 ar  
     3     1    25 1   
     4     2     5 ar  
     5     2    26 1   
     6     3     7 ar  
     7     3    27 1   
     8     4     6 ar  
     9     4     7 ar  
    10     4    28 1   
    11     5     8 ar  
    12     5    29 1   
    13     6     9 ar  
    14     6    30 1   
    15     7     8 ar  
    16     8    19 ar  
    17     9    19 ar  
    18     9    24 1   
    19    10    17 1   
    20    10    20 1   
    21    10    21 2   
    22    11    20 2   
    23    11    22 1   
    24    11    23 1   
    25    12    13 2   
    26    12    14 1   
    27    12    31 1   
    28    13    15 1   
    29    13    23 1   
    30    14    16 1   
    31    14    22 2   
    32    15    32 1   
    33    15    33 1   
    34    15    34 1   
    35    16    35 1   
    36    16    36 1   
    37    16    37 1   
    38    17    18 1   
    39    17    38 1   
    40    17    39 1   
    41    18    24 1   
    42    18    40 1   
    43    18    41 1   
    44    21    23 1   
    45    24    42 1   
@<TRIPOS>SUBSTRUCTURE
     1 D6X         1 TEMP              0 ****  ****    0 ROOT
