@<TRIPOS>MOLECULE
D6Y
   33    34     1     0     0
SMALL
No Charge or Current Charge


@<TRIPOS>ATOM
      1 C4           1.3850     8.9620    10.7540 cc         1 D6Y       0.207300
      2 C5           2.1130     8.1010    11.5150 cd         1 D6Y      -0.259000
      3 C6           1.5080     8.0810    12.7820 cd         1 D6Y       0.275300
      4 N1           2.2400     9.1350    15.5150 n8         1 D6Y      -0.993200
      5 C7           1.9530     7.2720    13.9730 c3         1 D6Y      -0.103700
      6 C8           2.9560     8.0050    14.8940 cy         1 D6Y       0.130200
      7 C9           4.3870     8.2930    14.2980 cy         1 D6Y       0.121600
      8 C10          3.7940     7.0880    15.8620 cy         1 D6Y       0.121600
      9 O1           4.8020     6.9700    14.7940 oq         1 D6Y      -0.458000
     10 N            0.4500     8.8690    12.8470 nc         1 D6Y      -0.351300
     11 O            0.3590     9.4540    11.5290 os         1 D6Y      -0.096700
     12 C1           1.5230     9.4170     9.3110 c3         1 D6Y      -0.090300
     13 C3           0.2410     9.0390     8.5240 c3         1 D6Y      -0.084433
     14 C2           2.7440     8.7370     8.6360 c3         1 D6Y      -0.084433
     15 C            1.7200    10.9540     9.2700 c3         1 D6Y      -0.084433
     16 H1           2.9880     7.5400    11.2080 ha         1 D6Y       0.150000
     17 H2           2.7750    10.0040    15.3990 hn         1 D6Y       0.411000
     18 H3           1.3760     9.3230    14.9910 hn         1 D6Y       0.411000
     19 H5           1.0790     6.9520    14.5530 hc         1 D6Y       0.077200
     20 H6           2.4080     6.3430    13.6070 hc         1 D6Y       0.077200
     21 H7           4.9430     9.1000    14.7920 h1         1 D6Y       0.057700
     22 H8           4.4490     8.3730    13.2070 h1         1 D6Y       0.057700
     23 H9           3.3390     6.1270    16.1250 h1         1 D6Y       0.057700
     24 H10          4.1990     7.5980    16.7460 h1         1 D6Y       0.057700
     25 H11         -0.6430     9.5280     8.9510 hc         1 D6Y       0.043922
     26 H12          0.3190     9.3430     7.4730 hc         1 D6Y       0.043922
     27 H13          0.0720     7.9550     8.5520 hc         1 D6Y       0.043922
     28 H14          3.6740     8.9880     9.1620 hc         1 D6Y       0.043922
     29 H15          2.6370     7.6450     8.6380 hc         1 D6Y       0.043922
     30 H16          2.8490     9.0620     7.5940 hc         1 D6Y       0.043922
     31 H17          0.8590    11.4750     9.7080 hc         1 D6Y       0.043922
     32 H18          2.6140    11.2470     9.8340 hc         1 D6Y       0.043922
     33 H19          1.8380    11.3090     8.2390 hc         1 D6Y       0.043922
@<TRIPOS>BOND
     1     1     2 2   
     2     1    11 1   
     3     1    12 1   
     4     2     3 1   
     5     2    16 1   
     6     3     5 1   
     7     3    10 2   
     8     4     6 1   
     9     4    17 1   
    10     4    18 1   
    11     5     6 1   
    12     5    19 1   
    13     5    20 1   
    14     6     7 1   
    15     6     8 1   
    16     7     9 1   
    17     7    21 1   
    18     7    22 1   
    19     8     9 1   
    20     8    23 1   
    21     8    24 1   
    22    10    11 1   
    23    12    13 1   
    24    12    14 1   
    25    12    15 1   
    26    13    25 1   
    27    13    26 1   
    28    13    27 1   
    29    14    28 1   
    30    14    29 1   
    31    14    30 1   
    32    15    31 1   
    33    15    32 1   
    34    15    33 1   
@<TRIPOS>SUBSTRUCTURE
     1 D6Y         1 TEMP              0 ****  ****    0 ROOT
