@<TRIPOS>MOLECULE
D6Y
   33    34     1     0     0
SMALL
abcg2


@<TRIPOS>ATOM
      1 C4           1.3660     8.9380    10.7600 cc         1 D6Y       0.207300
      2 C5           2.1560     8.1500    11.5340 cd         1 D6Y      -0.259000
      3 C6           1.4650     8.0450    12.7750 cd         1 D6Y       0.275300
      4 N1           2.6110     9.3630    15.1610 n8         1 D6Y      -0.993200
      5 C7           1.8800     7.3280    14.0200 c3         1 D6Y      -0.103700
      6 C8           3.0190     8.0290    14.7710 cy         1 D6Y       0.130200
      7 C9           4.4210     7.8020    14.1390 cy         1 D6Y       0.121600
      8 C10          3.5720     7.1690    15.9240 cy         1 D6Y       0.121600
      9 O1           4.7450     6.8080    15.1480 oq         1 D6Y      -0.458000
     10 N            0.3420     8.7200    12.7480 nc         1 D6Y      -0.351300
     11 O            0.2710     9.2910    11.4670 os         1 D6Y      -0.096700
     12 C1           1.4760     9.4580     9.3550 c3         1 D6Y      -0.090300
     13 C3           0.2730     8.9600     8.5330 c3         1 D6Y      -0.084433
     14 C2           2.7790     8.9500     8.7270 c3         1 D6Y      -0.084433
     15 C            1.4830    10.9980     9.3850 c3         1 D6Y      -0.084433
     16 H1           3.0920     7.6960    11.2660 ha         1 D6Y       0.150000
     17 H2           3.3880     9.8650    15.5780 hn         1 D6Y       0.411000
     18 H3           2.3080     9.9000    14.3550 hn         1 D6Y       0.411000
     19 H5           1.0200     7.2520    14.6880 hc         1 D6Y       0.077200
     20 H6           2.2000     6.3160    13.7640 hc         1 D6Y       0.077200
     21 H7           5.0730     8.6770    14.2160 h1         1 D6Y       0.057700
     22 H8           4.4720     7.3840    13.1330 h1         1 D6Y       0.057700
     23 H9           2.9890     6.2940    16.2180 h1         1 D6Y       0.057700
     24 H10          3.8410     7.7560    16.8070 h1         1 D6Y       0.057700
     25 H11         -0.6670     9.3140     8.9570 hc         1 D6Y       0.043922
     26 H12          0.3510     9.3340     7.5110 hc         1 D6Y       0.043922
     27 H13          0.2490     7.8690     8.5010 hc         1 D6Y       0.043922
     28 H14          3.6490     9.2970     9.2860 hc         1 D6Y       0.043922
     29 H15          2.8030     7.8590     8.6920 hc         1 D6Y       0.043922
     30 H16          2.8580     9.3250     7.7050 hc         1 D6Y       0.043922
     31 H17          0.5610    11.3890     9.8160 hc         1 D6Y       0.043922
     32 H18          2.3260    11.3710     9.9710 hc         1 D6Y       0.043922
     33 H19          1.5770    11.3800     8.3670 hc         1 D6Y       0.043922
@<TRIPOS>BOND
     1     1     2 2   
     2     1    11 1   
     3     1    12 1   
     4     2     3 1   
     5     2    16 1   
     6     3     5 1   
     7     3    10 2   
     8     4     6 1   
     9     4    17 1   
    10     4    18 1   
    11     5     6 1   
    12     5    19 1   
    13     5    20 1   
    14     6     7 1   
    15     6     8 1   
    16     7     9 1   
    17     7    21 1   
    18     7    22 1   
    19     8     9 1   
    20     8    23 1   
    21     8    24 1   
    22    10    11 1   
    23    12    13 1   
    24    12    14 1   
    25    12    15 1   
    26    13    25 1   
    27    13    26 1   
    28    13    27 1   
    29    14    28 1   
    30    14    29 1   
    31    14    30 1   
    32    15    31 1   
    33    15    32 1   
    34    15    33 1   
@<TRIPOS>SUBSTRUCTURE
     1 D6Y         1 TEMP              0 ****  ****    0 ROOT
