@<TRIPOS>MOLECULE
D6Z
   56    60     1     0     0
SMALL
abcg2


@<TRIPOS>ATOM
      1 C4           2.1090     3.9940    -1.1330 ca         1 D6Z      -0.073000
      2 C5           2.7090     3.0100    -0.3560 ca         1 D6Z      -0.136000
      3 C6           1.8800     2.0820     0.2440 ca         1 D6Z      -0.021000
      4 C13          6.5580    -2.3300    -0.4720 c3         1 D6Z       0.276000
      5 C17          1.1880     0.2850     1.4530 c          1 D6Z       0.573000
      6 C20         -0.7750    -0.1030    -0.0500 c6         1 D6Z      -0.087400
      7 C21         -1.5310    -1.1950     0.7000 c6         1 D6Z       0.094000
      8 C24         -1.0140     1.3620     2.0170 c6         1 D6Z      -0.087400
      9 C26         -4.4850    -1.3580     0.5610 ca         1 D6Z       0.271500
     10 C28         -6.2790    -1.5700    -1.0530 ca         1 D6Z      -0.099000
     11 C12          6.2620    -0.9070    -0.8940 c3         1 D6Z       0.034000
     12 C19         -0.0790     0.9200     0.8720 c5         1 D6Z      -0.061700
     13 C2          -0.0690     3.0840    -0.6770 ca         1 D6Z       0.037100
     14 C23         -1.7310     0.1900     2.6730 c6         1 D6Z       0.094000
     15 C27         -5.5160    -0.7870    -0.2200 ca         1 D6Z      -0.086000
     16 C29         -5.9780    -2.9330    -1.0400 ca         1 D6Z      -0.077200
     17 C3           0.7340     4.0420    -1.2960 ca         1 D6Z      -0.118000
     18 C30         -4.9420    -3.4170    -0.2200 ca         1 D6Z       0.189700
     19 C32         -4.9260    -4.8180    -0.4600 cc         1 D6Z       0.262200
     20 C36          0.4900     2.0870     0.0990 ca         1 D6Z      -0.105300
     21 C9           4.1860    -0.0890     0.1060 c          1 D6Z       0.582100
     22 F14          7.3040    -2.3760     0.6410 f          1 D6Z      -0.111667
     23 F15          5.4440    -3.0260    -0.2180 f          1 D6Z      -0.111667
     24 F16          7.2290    -2.9820    -1.4290 f          1 D6Z      -0.111667
     25 N11          5.5280    -0.1970     0.1140 ns         1 D6Z      -0.511900
     26 N22         -2.4320    -0.6080     1.6790 n          1 D6Z      -0.375800
     27 N31         -4.1960    -2.6410     0.5700 nb         1 D6Z      -0.579000
     28 N33         -5.8510    -5.1360    -1.3290 nd         1 D6Z      -0.508100
     29 N34         -6.4780    -4.0100    -1.6760 na         1 D6Z      -0.053400
     30 N7           2.2610     1.0360     1.0730 n          1 D6Z      -0.201400
     31 O10          3.4650    -0.5400    -0.7610 o          1 D6Z      -0.560100
     32 O18          1.2600    -0.7120     2.1380 o          1 D6Z      -0.513000
     33 O35         -4.4280     0.3390     2.1720 o          1 D6Z      -0.603100
     34 BR1         -1.9370     3.2180    -0.9510 br         1 D6Z      -0.086100
     35 H38          2.7230     4.7390    -1.6210 ha         1 D6Z       0.120000
     36 H39          3.7830     2.9830    -0.2340 ha         1 D6Z       0.121000
     37 H40          3.6480    -0.0110     2.1750 h1         1 D6Z       0.084200
     38 H41          4.2200     1.5260     1.5690 h1         1 D6Z       0.084200
     39 H45         -0.0420    -0.5670    -0.7160 hc         1 D6Z       0.064950
     40 H46         -1.4870     0.4220    -0.6900 hc         1 D6Z       0.064950
     41 H47         -2.0790    -1.7940    -0.0190 h1         1 D6Z       0.074700
     42 H48         -0.8470    -1.8690     1.2170 h1         1 D6Z       0.074700
     43 H51         -0.4490     1.9190     2.7670 hc         1 D6Z       0.064950
     44 H52         -1.7650     2.0440     1.6190 hc         1 D6Z       0.064950
     45 H54         -7.0630    -1.1510    -1.6670 ha         1 D6Z       0.129000
     46 H43          7.2050    -0.3960    -1.0900 h1         1 D6Z       0.092700
     47 H44          5.6960    -0.9250    -1.8260 h1         1 D6Z       0.092700
     48 H49         -1.0280    -0.4610     3.1920 h1         1 D6Z       0.074700
     49 H50         -2.4360     0.5620     3.4110 h1         1 D6Z       0.074700
     50 H53         -5.7020     0.2770    -0.1620 ha         1 D6Z       0.141000
     51 H37          0.2930     4.8210    -1.9020 ha         1 D6Z       0.134000
     52 H55         -4.2800    -5.5690    -0.0330 h4         1 D6Z       0.064800
     53 H42          6.0500     0.2370     0.8590 hn         1 D6Z       0.326500
     54 H56         -7.2360    -4.0430    -2.3380 hn         1 D6Z       0.381000
     55 C8           3.6170     0.6540     1.3100 c3         1 D6Z       0.019000
     56 C25         -3.7610    -0.4600     1.5260 c          1 D6Z       0.516600
@<TRIPOS>BOND
     1     1     2 ar  
     2     1    17 ar  
     3     1    35 1   
     4     2     3 ar  
     5     2    36 1   
     6     3    20 ar  
     7     3    30 1   
     8     4    11 1   
     9     4    22 1   
    10     4    23 1   
    11     4    24 1   
    12     5    12 1   
    13     5    30 1   
    14     5    32 2   
    15     6     7 1   
    16     6    12 1   
    17     6    39 1   
    18     6    40 1   
    19     7    26 1   
    20     7    41 1   
    21     7    42 1   
    22     8    12 1   
    23     8    14 1   
    24     8    43 1   
    25     8    44 1   
    26     9    15 ar  
    27     9    27 ar  
    28     9    56 1   
    29    10    15 ar  
    30    10    16 ar  
    31    10    45 1   
    32    11    25 1   
    33    11    46 1   
    34    11    47 1   
    35    12    20 1   
    36    13    17 ar  
    37    13    20 ar  
    38    13    34 1   
    39    14    26 1   
    40    14    48 1   
    41    14    49 1   
    42    15    50 1   
    43    16    18 ar  
    44    16    29 1   
    45    17    51 1   
    46    18    19 1   
    47    18    27 ar  
    48    19    28 2   
    49    19    52 1   
    50    21    25 1   
    51    21    31 2   
    52    21    55 1   
    53    25    53 1   
    54    26    56 1   
    55    28    29 1   
    56    29    54 1   
    57    30    55 1   
    58    33    56 2   
    59    37    55 1   
    60    38    55 1   
@<TRIPOS>SUBSTRUCTURE
     1 D6Z         1 TEMP              0 ****  ****    0 ROOT
