@<TRIPOS>MOLECULE
D6Z
   56    60     1     0     0
SMALL
No Charge or Current Charge


@<TRIPOS>ATOM
      1 C4           2.1860     4.4800    -0.9030 ca         1 D6Z      -0.073000
      2 C5           2.7850     3.3960    -0.2400 ca         1 D6Z      -0.136000
      3 C6           1.9640     2.3460     0.2000 ca         1 D6Z      -0.021000
      4 C13          6.2090    -2.8680    -0.4080 c3         1 D6Z       0.276000
      5 C17          1.2490     0.3930     1.3060 c          1 D6Z       0.573000
      6 C20         -0.8220     0.2570    -0.2570 c6         1 D6Z      -0.087400
      7 C21         -1.5480    -0.9360     0.4160 c6         1 D6Z       0.094000
      8 C24         -0.9970     1.5470     1.9150 c6         1 D6Z      -0.087400
      9 C26         -4.5890    -1.4680     0.5710 ca         1 D6Z       0.271500
     10 C28         -6.6000    -2.0660    -0.7240 ca         1 D6Z      -0.099000
     11 C12          6.3760    -1.3570    -0.7030 c3         1 D6Z       0.034000
     12 C19         -0.0300     1.1400     0.7590 c5         1 D6Z      -0.061700
     13 C2          -0.0280     3.4710    -0.5920 ca         1 D6Z       0.037100
     14 C23         -1.7010     0.3230     2.5490 c6         1 D6Z       0.094000
     15 C27         -5.8580    -1.1200     0.0170 ca         1 D6Z      -0.086000
     16 C29         -6.0170    -3.3300    -0.8510 ca         1 D6Z      -0.077200
     17 C3           0.7880     4.5100    -1.0850 ca         1 D6Z      -0.118000
     18 C30         -4.8140    -3.6090    -0.2820 ca         1 D6Z       0.189700
     19 C32         -4.5560    -4.9940    -0.6130 cc         1 D6Z       0.262200
     20 C36          0.5830     2.3790     0.0750 ca         1 D6Z      -0.105300
     21 C9           4.3080    -0.0930     0.0390 c          1 D6Z       0.582100
     22 F14          6.6000    -3.1610     0.8530 f          1 D6Z      -0.111667
     23 F15          4.9230    -3.2620    -0.5480 f          1 D6Z      -0.111667
     24 F16          6.9620    -3.6030    -1.2570 f          1 D6Z      -0.111667
     25 N11          5.6230    -0.4740     0.2160 ns         1 D6Z      -0.511900
     26 N22         -2.4290    -0.4800     1.5290 n          1 D6Z      -0.375800
     27 N31         -4.0740    -2.7350     0.4350 nb         1 D6Z      -0.579000
     28 N33         -5.5470    -5.5360    -1.3480 nd         1 D6Z      -0.508100
     29 N34         -6.4560    -4.4750    -1.4870 na         1 D6Z      -0.053400
     30 N7           2.3310     1.2130     0.9540 n          1 D6Z      -0.201400
     31 O10          3.6620    -0.4360    -0.9420 o          1 D6Z      -0.560100
     32 O18          1.3380    -0.6770     1.8970 o          1 D6Z      -0.513000
     33 O35         -4.4710     0.4360     2.0390 o          1 D6Z      -0.603100
     34 Br1         -1.9230     3.6330    -0.8630 br         1 D6Z      -0.086100
     35 H38          2.8000     5.2990    -1.2720 ha         1 D6Z       0.120000
     36 H39          3.8610     3.3780    -0.0870 ha         1 D6Z       0.121000
     37 H40          3.8070     0.2150     2.0980 h1         1 D6Z       0.084200
     38 H41          4.3810     1.6650     1.2710 h1         1 D6Z       0.084200
     39 H45         -0.1390    -0.1190    -1.0320 hc         1 D6Z       0.064950
     40 H46         -1.5730     0.8540    -0.7840 hc         1 D6Z       0.064950
     41 H47         -2.1180    -1.4550    -0.3640 h1         1 D6Z       0.074700
     42 H48         -0.8160    -1.6560     0.8080 h1         1 D6Z       0.074700
     43 H51         -0.4420     2.0950     2.6890 hc         1 D6Z       0.064950
     44 H52         -1.7700     2.2330     1.5550 hc         1 D6Z       0.064950
     45 H54         -7.5660    -1.8260    -1.1630 ha         1 D6Z       0.129000
     46 H43          7.4420    -1.1030    -0.6380 h1         1 D6Z       0.092700
     47 H44          6.0580    -1.1600    -1.7360 h1         1 D6Z       0.092700
     48 H49         -0.9600    -0.3200     3.0450 h1         1 D6Z       0.074700
     49 H50         -2.3880     0.6640     3.3370 h1         1 D6Z       0.074700
     50 H53         -6.2550    -0.1180     0.1610 ha         1 D6Z       0.141000
     51 H37          0.3330     5.3540    -1.5970 ha         1 D6Z       0.134000
     52 H55         -3.7160    -5.6280    -0.3650 h4         1 D6Z       0.064800
     53 H42          6.0870    -0.1460     1.0570 hn         1 D6Z       0.326500
     54 H56         -7.3280    -4.5820    -2.0060 hn         1 D6Z       0.381000
     55 C8           3.7360     0.7860     1.1640 c3         1 D6Z       0.019000
     56 C25         -3.8460    -0.4190     1.4140 c          1 D6Z       0.516600
@<TRIPOS>BOND
     1     1     2 ar  
     2     1    17 ar  
     3     1    35 1   
     4     2     3 ar  
     5     2    36 1   
     6     3    20 ar  
     7     3    30 1   
     8     4    11 1   
     9     4    22 1   
    10     4    23 1   
    11     4    24 1   
    12     5    12 1   
    13     5    30 1   
    14     5    32 2   
    15     6     7 1   
    16     6    12 1   
    17     6    39 1   
    18     6    40 1   
    19     7    26 1   
    20     7    41 1   
    21     7    42 1   
    22     8    12 1   
    23     8    14 1   
    24     8    43 1   
    25     8    44 1   
    26     9    15 ar  
    27     9    27 ar  
    28     9    56 1   
    29    10    15 ar  
    30    10    16 ar  
    31    10    45 1   
    32    11    25 1   
    33    11    46 1   
    34    11    47 1   
    35    12    20 1   
    36    13    17 ar  
    37    13    20 ar  
    38    13    34 1   
    39    14    26 1   
    40    14    48 1   
    41    14    49 1   
    42    15    50 1   
    43    16    18 ar  
    44    16    29 1   
    45    17    51 1   
    46    18    19 1   
    47    18    27 ar  
    48    19    28 2   
    49    19    52 1   
    50    21    25 1   
    51    21    31 2   
    52    21    55 1   
    53    25    53 1   
    54    26    56 1   
    55    28    29 1   
    56    29    54 1   
    57    30    55 1   
    58    33    56 2   
    59    37    55 1   
    60    38    55 1   
@<TRIPOS>SUBSTRUCTURE
     1 D6Z         1 TEMP              0 ****  ****    0 ROOT
