@<TRIPOS>MOLECULE
D70
  113   119     1     0     0
SMALL
No Charge or Current Charge


@<TRIPOS>ATOM
      1 PA          -7.2870    67.9810    87.6630 p5         1 D70       1.471800
      2 O1A         -6.2650    68.4990    86.7110 o          1 D70      -0.841500
      3 O2A         -8.3010    67.1690    86.9310 o          1 D70      -0.841500
      4 O5B         -7.9470    69.1970    88.4830 os         1 D70      -0.577400
      5 C5B         -7.1300    70.2750    88.9620 c3         1 D70       0.214600
      6 C4B         -7.5180    71.5950    88.2280 c5         1 D70       0.139300
      7 O4B         -6.6770    72.6800    88.6920 os         1 D70      -0.461000
      8 C3B         -7.3180    71.6300    86.6800 c5         1 D70       0.153300
      9 O3B         -8.0000    72.7250    86.0500 oh         1 D70      -0.729000
     10 C2B         -5.7800    71.8680    86.5810 c5         1 D70       0.086300
     11 O2B         -5.4500    72.5320    85.3390 oh         1 D70      -0.713000
     12 C1B         -5.4910    72.7470    87.8630 c5         1 D70       0.270300
     13 N9A         -4.3080    72.4460    88.6780 na         1 D70      -0.282300
     14 C8A         -3.5700    71.2520    88.6960 cc         1 D70       0.440700
     15 N7A         -2.5280    71.3290    89.5470 nd         1 D70      -0.576100
     16 C5A         -2.6310    72.6220    90.0670 ca         1 D70      -0.093600
     17 C6A         -1.8140    73.2790    91.0110 ca         1 D70       0.440900
     18 N6A         -0.7310    72.6890    91.5850 nv         1 D70      -1.078900
     19 N1A         -2.0750    74.5360    91.4020 nb         1 D70      -0.323000
     20 C2A         -3.1550    75.1230    90.8310 ca         1 D70       0.159900
     21 N3A         -3.9900    74.5720    89.9180 nb         1 D70      -0.206000
     22 C4A         -3.7030    73.3060    89.5520 ca         1 D70       0.122500
     23 N1          -8.2780    58.8230    86.2110 ns         1 D70      -0.504900
     24 C2          -8.4910    57.8700    87.1560 c          1 D70       0.620000
     25 O2          -8.5270    58.1170    88.3440 o          1 D70      -0.569000
     26 N3          -8.6560    56.6090    86.6670 ns         1 D70      -0.490500
     27 C4          -8.4360    56.1440    85.3920 c          1 D70       0.588000
     28 O4          -8.5700    54.9520    85.1550 o          1 D70      -0.518000
     29 C4X         -8.0140    57.1960    84.2990 c6         1 D70       0.126200
     30 N5          -8.6550    57.0030    82.9480 nu         1 D70      -0.906200
     31 C5X         -8.6890    58.0960    82.0470 ca         1 D70       0.211000
     32 C6          -8.9200    57.8480    80.6860 ca         1 D70      -0.133000
     33 C7          -8.9280    58.9010    79.7510 ca         1 D70      -0.087300
     34 C7M         -9.1830    58.5870    78.2800 c3         1 D70      -0.033800
     35 C8          -8.6990    60.2260    80.1900 ca         1 D70      -0.069300
     36 C8M         -8.7070    61.3930    79.2060 c3         1 D70      -0.039800
     37 C9          -8.4590    60.4800    81.5550 ca         1 D70      -0.100000
     38 C9A         -8.4410    59.4380    82.5010 ca         1 D70       0.291000
     39 N10         -8.1880    59.7000    83.8910 nh         1 D70      -0.791400
     40 C10         -8.5370    58.5880    84.8120 c6         1 D70       0.394900
     41 C1          -7.2990    60.7990    84.3560 c3         1 D70       0.188800
     42 C11         -8.0480    61.9890    85.0410 c3         1 D70       0.137300
     43 O6          -8.1990    63.0870    84.1240 oh         1 D70      -0.748000
     44 C3          -7.3360    62.4980    86.3380 c3         1 D70       0.118300
     45 O3          -7.2640    61.4100    87.2840 oh         1 D70      -0.664000
     46 C12         -8.0520    63.7390    86.9850 c3         1 D70       0.188300
     47 O7          -8.1500    64.8180    86.0140 oh         1 D70      -0.837000
     48 C5          -7.3450    64.2260    88.2870 c3         1 D70       0.201600
     49 O5          -8.1330    65.2780    88.8520 os         1 D70      -0.593400
     50 P           -7.4610    66.3610    89.8330 p5         1 D70       1.458800
     51 O1P         -6.5860    65.6750    90.8290 o          1 D70      -0.840500
     52 O2P         -8.4900    67.1840    90.5330 o          1 D70      -0.840500
     53 O3P         -6.5750    67.1920    88.8250 os         1 D70      -0.726800
     54 CAH         -5.8320    54.6720    83.6500 ca         1 D70      -0.099000
     55 CAD         -5.4070    53.6440    82.7920 ca         1 D70      -0.114000
     56 CAB         -5.1180    53.9230    81.4470 ca         1 D70      -0.117000
     57 CAE         -5.2550    55.2330    80.9610 ca         1 D70      -0.114000
     58 CAI         -5.6770    56.2620    81.8200 ca         1 D70      -0.099000
     59 CAP         -5.9720    55.9940    83.1750 ca         1 D70      -0.072300
     60 CAM         -6.4290    57.1440    84.0950 c3         1 D70      -0.022400
     61 CAL         -5.5480    57.2150    85.3830 c3         1 D70      -0.111700
     62 CAO         -4.0650    57.3790    85.0870 c2         1 D70       0.420300
     63 NAA         -3.5620    58.5220    84.7880 n2         1 D70      -0.747100
     64 CAN         -3.1870    56.1500    85.2620 c3         1 D70      -0.178700
     65 CAQ         -2.3520    55.7960    84.0100 c3         1 D70      -0.092100
     66 H5B1        -7.2930    70.4140    90.0380 h1         1 D70       0.038200
     67 H5B2        -6.0630    70.0630    88.8200 h1         1 D70       0.038200
     68 H4B         -8.5610    71.8180    88.4900 h1         1 D70       0.095700
     69 H3B         -7.6070    70.6760    86.2130 h1         1 D70       0.123700
     70 H1B         -5.3570    73.7910    87.5490 h2         1 D70       0.096700
     71 HA          -7.2970    73.0850    85.4500 ho         1 D70       0.508000
     72 H2B         -5.2670    70.9000    86.6390 h1         1 D70       0.087700
     73 HB          -4.4750    72.4510    85.2000 ho         1 D70       0.507000
     74 H8A         -3.8270    70.3880    88.0950 h5         1 D70       0.098800
     75 H6A1        -0.3740    73.0890    92.4490 hn         1 D70       0.499000
     76 H6A2        -0.6430    71.6820    91.4760 hn         1 D70       0.499000
     77 H2A         -3.3750    76.1440    91.1390 h5         1 D70       0.031100
     78 H10         -9.6360    58.5150    84.7550 h2         1 D70       0.077700
     79 H5          -8.6340    56.0700    82.5320 hn         1 D70       0.471000
     80 HAM         -6.1710    58.0640    83.5590 hc         1 D70       0.102700
     81 H6          -9.0910    56.8280    80.3530 ha         1 D70       0.102000
     82 H7M1       -10.0780    59.1060    77.9150 hc         1 D70       0.032367
     83 H7M2        -8.3360    58.8970    77.6570 hc         1 D70       0.032367
     84 H7M3        -9.3370    57.5150    78.1110 hc         1 D70       0.032367
     85 H8M1        -9.6760    61.4770    78.7000 hc         1 D70       0.037700
     86 H8M2        -8.5180    62.3500    79.7070 hc         1 D70       0.037700
     87 H8M3        -7.9340    61.2690    78.4390 hc         1 D70       0.037700
     88 H9          -8.2960    61.5010    81.8840 ha         1 D70       0.121000
     89 H1'1        -6.5520    60.3860    85.0470 h1         1 D70       0.052700
     90 H1'2        -6.7070    61.1870    83.5150 h1         1 D70       0.052700
     91 H2          -9.0430    61.6370    85.3450 h1         1 D70       0.025700
     92 HC          -8.2180    63.8910    84.7410 ho         1 D70       0.576000
     93 H3          -6.3170    62.8030    86.0610 h1         1 D70       0.045700
     94 HD          -6.5010    61.5800    87.8780 ho         1 D70       0.426000
     95 H4          -9.0640    63.4200    87.2680 h1         1 D70       0.038700
     96 HE          -8.2620    65.7050    86.5240 ho         1 D70       0.627000
     97 H5'1        -7.2660    63.3970    89.0020 h1         1 D70       0.021700
     98 H5'2        -6.3300    64.5710    88.0460 h1         1 D70       0.021700
     99 HAH         -6.0460    54.4310    84.6880 ha         1 D70       0.116500
    100 HAD         -5.3010    52.6300    83.1700 ha         1 D70       0.105000
    101 HAB         -4.7900    53.1270    80.7830 ha         1 D70       0.102000
    102 HAE         -5.0330    55.4530    79.9200 ha         1 D70       0.105000
    103 HAI         -5.7800    57.2710    81.4260 ha         1 D70       0.116500
    104 HAL1        -5.8510    58.0810    85.9780 hc         1 D70       0.063700
    105 HAL2        -5.7270    56.3440    86.0220 hc         1 D70       0.063700
    106 HAA         -2.5460    58.4170    84.6610 hn         1 D70       0.368400
    107 HAN1        -2.5060    56.3080    86.1070 hc         1 D70       0.057200
    108 HAN2        -3.7880    55.2730    85.5280 hc         1 D70       0.057200
    109 HAQ1        -1.7740    54.8800    84.1830 hc         1 D70       0.035033
    110 HAQ2        -3.0010    55.6300    83.1430 hc         1 D70       0.035033
    111 HAQ3        -1.6480    56.6000    83.7650 hc         1 D70       0.035033
    112 H1          -8.1110    59.7690    86.5350 hn         1 D70       0.349500
    113 H11         -8.8800    55.9050    87.3530 hn         1 D70       0.333500
@<TRIPOS>BOND
     1     1     2 1   
     2     1     3 1   
     3     1     4 1   
     4     1    53 1   
     5     4     5 1   
     6     5     6 1   
     7     5    66 1   
     8     5    67 1   
     9     6     7 1   
    10     6     8 1   
    11     6    68 1   
    12     7    12 1   
    13     8     9 1   
    14     8    10 1   
    15     8    69 1   
    16     9    71 1   
    17    10    11 1   
    18    10    12 1   
    19    10    72 1   
    20    11    73 1   
    21    12    13 1   
    22    12    70 1   
    23    13    14 1   
    24    13    22 1   
    25    14    15 2   
    26    14    74 1   
    27    15    16 1   
    28    16    17 ar  
    29    16    22 ar  
    30    17    18 1   
    31    17    19 ar  
    32    18    75 1   
    33    18    76 1   
    34    19    20 ar  
    35    20    21 ar  
    36    20    77 1   
    37    21    22 ar  
    38    23    24 1   
    39    23    40 1   
    40    23   112 1   
    41    24    25 2   
    42    24    26 1   
    43    26    27 1   
    44    26   113 1   
    45    27    28 2   
    46    27    29 1   
    47    29    30 1   
    48    29    40 1   
    49    29    60 1   
    50    30    31 1   
    51    30    79 1   
    52    31    32 ar  
    53    31    38 ar  
    54    32    33 ar  
    55    32    81 1   
    56    33    34 1   
    57    33    35 ar  
    58    34    82 1   
    59    34    83 1   
    60    34    84 1   
    61    35    36 1   
    62    35    37 ar  
    63    36    85 1   
    64    36    86 1   
    65    36    87 1   
    66    37    38 ar  
    67    37    88 1   
    68    38    39 1   
    69    39    40 1   
    70    39    41 1   
    71    40    78 1   
    72    41    42 1   
    73    41    89 1   
    74    41    90 1   
    75    42    43 1   
    76    42    44 1   
    77    42    91 1   
    78    43    92 1   
    79    44    45 1   
    80    44    46 1   
    81    44    93 1   
    82    45    94 1   
    83    46    47 1   
    84    46    48 1   
    85    46    95 1   
    86    47    96 1   
    87    48    49 1   
    88    48    97 1   
    89    48    98 1   
    90    49    50 1   
    91    50    51 1   
    92    50    52 1   
    93    50    53 1   
    94    54    55 ar  
    95    54    59 ar  
    96    54    99 1   
    97    55    56 ar  
    98    55   100 1   
    99    56    57 ar  
   100    56   101 1   
   101    57    58 ar  
   102    57   102 1   
   103    58    59 ar  
   104    58   103 1   
   105    59    60 1   
   106    60    61 1   
   107    60    80 1   
   108    61    62 1   
   109    61   104 1   
   110    61   105 1   
   111    62    63 2   
   112    62    64 1   
   113    63   106 1   
   114    64    65 1   
   115    64   107 1   
   116    64   108 1   
   117    65   109 1   
   118    65   110 1   
   119    65   111 1   
@<TRIPOS>SUBSTRUCTURE
     1 D70         1 TEMP              0 ****  ****    0 ROOT
