@<TRIPOS>MOLECULE
D70
  113   119     1     0     0
SMALL
abcg2


@<TRIPOS>ATOM
      1 PA          -7.4850    67.2590    88.2260 p5         1 D70       1.471800
      2 O1A         -6.9680    67.7230    86.9020 o          1 D70      -0.841500
      3 O2A         -8.4910    66.1410    88.3230 o          1 D70      -0.841500
      4 O5B         -8.1690    68.5060    89.0370 os         1 D70      -0.577400
      5 C5B         -7.4180    69.6880    89.2200 c3         1 D70       0.214600
      6 C4B         -8.1780    70.8810    88.6560 c5         1 D70       0.139300
      7 O4B         -7.4230    72.0630    88.9390 os         1 D70      -0.461000
      8 C3B         -8.3700    70.8640    87.1450 c5         1 D70       0.153300
      9 O3B         -9.5010    71.6460    86.8470 oh         1 D70      -0.729000
     10 C2B         -7.0860    71.5390    86.6740 c5         1 D70       0.086300
     11 O2B         -7.2200    72.0530    85.3850 oh         1 D70      -0.713000
     12 C1B         -6.9040    72.6110    87.7570 c5         1 D70       0.270300
     13 N9A         -5.5360    73.0170    87.9660 na         1 D70      -0.282300
     14 C8A         -4.4570    72.2210    88.2520 cc         1 D70       0.440700
     15 N7A         -3.3600    72.8870    88.4490 nd         1 D70      -0.576100
     16 C5A         -3.7250    74.2000    88.2930 ca         1 D70      -0.093600
     17 C6A         -3.0100    75.4080    88.3790 ca         1 D70       0.440900
     18 N6A         -1.7060    75.4580    88.6550 nv         1 D70      -1.078900
     19 N1A         -3.6800    76.5470    88.1740 nb         1 D70      -0.323000
     20 C2A         -4.9810    76.4940    87.9020 ca         1 D70       0.159900
     21 N3A         -5.7550    75.4280    87.7950 nb         1 D70      -0.206000
     22 C4A         -5.0750    74.3030    87.9990 ca         1 D70       0.122500
     23 N1          -7.4810    58.0230    86.3150 ns         1 D70      -0.504900
     24 C2          -8.3890    57.1020    86.7070 c          1 D70       0.620000
     25 O2          -8.4580    56.6470    87.8290 o          1 D70      -0.569000
     26 N3          -9.2700    56.6800    85.7160 ns         1 D70      -0.490500
     27 C4          -9.2630    57.0420    84.3970 c          1 D70       0.588000
     28 O4         -10.1580    56.7370    83.6460 o          1 D70      -0.518000
     29 C4X         -8.0280    57.8040    83.9500 c6         1 D70       0.126200
     30 N5          -8.4090    58.6770    82.8740 nu         1 D70      -0.906200
     31 C5X         -7.4300    59.6010    82.4990 ca         1 D70       0.211000
     32 C6          -7.4080    60.0980    81.2000 ca         1 D70      -0.133000
     33 C7          -6.4680    61.0210    80.7680 ca         1 D70      -0.087300
     34 C7M         -6.4870    61.5290    79.3560 c3         1 D70      -0.033800
     35 C8          -5.4970    61.4480    81.6790 ca         1 D70      -0.069300
     36 C8M         -4.4430    62.4350    81.2680 c3         1 D70      -0.039800
     37 C9          -5.5190    60.9520    82.9770 ca         1 D70      -0.100000
     38 C9A         -6.4710    60.0360    83.4280 ca         1 D70       0.291000
     39 N10         -6.4550    59.4990    84.7310 nh         1 D70      -0.791400
     40 C10         -7.6490    58.7670    85.0880 c6         1 D70       0.394900
     41 C1          -5.8210    60.2460    85.8060 c3         1 D70       0.188800
     42 C11         -6.7050    61.2900    86.4970 c3         1 D70       0.137300
     43 O6          -7.2030    62.1550    85.5120 oh         1 D70      -0.748000
     44 C3          -5.8880    62.0290    87.5760 c3         1 D70       0.118300
     45 O3          -5.3630    61.0970    88.5000 oh         1 D70      -0.664000
     46 C12         -6.7190    63.0330    88.3900 c3         1 D70       0.188300
     47 O7          -7.4390    63.8450    87.4940 oh         1 D70      -0.837000
     48 C5          -5.7980    63.8510    89.2840 c3         1 D70       0.201600
     49 O5          -6.5830    64.6370    90.1600 os         1 D70      -0.593400
     50 P           -6.0750    66.1340    90.5870 p5         1 D70       1.458800
     51 O1P         -4.6180    66.1100    90.9180 o          1 D70      -0.840500
     52 O2P         -7.1020    66.6610    91.5330 o          1 D70      -0.840500
     53 O3P         -6.1650    66.9240    89.1310 os         1 D70      -0.726800
     54 CAH         -8.0150    54.7460    82.5020 ca         1 D70      -0.099000
     55 CAD         -8.4460    54.0030    81.4120 ca         1 D70      -0.114000
     56 CAB         -8.2460    54.4700    80.1210 ca         1 D70      -0.117000
     57 CAE         -7.5990    55.6830    79.9290 ca         1 D70      -0.114000
     58 CAI         -7.1640    56.4190    81.0230 ca         1 D70      -0.099000
     59 CAP         -7.3720    55.9700    82.3260 ca         1 D70      -0.072300
     60 CAM         -6.8920    56.8070    83.4960 c3         1 D70      -0.022400
     61 CAL         -6.2500    55.9290    84.5720 c3         1 D70      -0.111700
     62 CAO         -5.1160    55.0780    84.0450 c2         1 D70       0.420300
     63 NAA         -4.3470    55.5470    83.1550 n2         1 D70      -0.747100
     64 CAN         -5.0010    53.7260    84.6990 c3         1 D70      -0.178700
     65 CAQ         -3.8000    52.8920    84.2910 c3         1 D70      -0.092100
     66 H5B1        -7.2570    69.8440    90.2910 h1         1 D70       0.038200
     67 H5B2        -6.4280    69.6250    88.7580 h1         1 D70       0.038200
     68 H4B         -9.1480    70.9590    89.1580 h1         1 D70       0.095700
     69 H3B         -8.4600    69.8480    86.7490 h1         1 D70       0.123700
     70 H1B         -7.4460    73.5190    87.4730 h2         1 D70       0.096700
     71 HA          -9.5530    71.7560    85.8910 ho         1 D70       0.508000
     72 H2B         -6.2690    70.8070    86.7280 h1         1 D70       0.087700
     73 HB          -6.3540    72.3130    85.0560 ho         1 D70       0.507000
     74 H8A         -4.5400    71.1450    88.3060 h5         1 D70       0.098800
     75 H6A1        -1.2330    76.3430    88.7190 hn         1 D70       0.499000
     76 H6A2        -1.1770    74.6200    88.8220 hn         1 D70       0.499000
     77 H2A         -5.4650    77.4530    87.7490 h5         1 D70       0.031100
     78 H10         -8.5020    59.4570    85.2060 h2         1 D70       0.077700
     79 H5          -8.8490    58.2060    82.0960 hn         1 D70       0.471000
     80 HAM         -6.0980    57.4490    83.1110 hc         1 D70       0.102700
     81 H6          -8.1590    59.7370    80.5040 ha         1 D70       0.102000
     82 H7M1        -6.5920    62.6150    79.3160 hc         1 D70       0.032367
     83 H7M2        -5.5620    61.2850    78.8280 hc         1 D70       0.032367
     84 H7M3        -7.3120    61.0970    78.7910 hc         1 D70       0.032367
     85 H8M1        -4.8790    63.3870    80.9590 hc         1 D70       0.037700
     86 H8M2        -3.7490    62.6410    82.0830 hc         1 D70       0.037700
     87 H8M3        -3.8570    62.0700    80.4210 hc         1 D70       0.037700
     88 H9          -4.7490    61.3060    83.6480 ha         1 D70       0.121000
     89 H1'1        -5.4330    59.5400    86.5410 h1         1 D70       0.052700
     90 H1'2        -4.9320    60.7380    85.4160 h1         1 D70       0.052700
     91 H2          -7.5300    60.7750    87.0220 h1         1 D70       0.025700
     92 HC          -7.5420    62.9330    85.9870 ho         1 D70       0.576000
     93 H3          -5.0830    62.5800    87.0660 h1         1 D70       0.045700
     94 HD          -4.4590    60.8840    88.2530 ho         1 D70       0.426000
     95 H4          -7.4050    62.4550    89.0310 h1         1 D70       0.038700
     96 HE          -7.8460    64.6420    87.9220 ho         1 D70       0.627000
     97 H5'1        -5.1530    63.1840    89.8600 h1         1 D70       0.021700
     98 H5'2        -5.1510    64.4630    88.6450 h1         1 D70       0.021700
     99 HAH         -8.1840    54.3510    83.4970 ha         1 D70       0.116500
    100 HAD         -8.9420    53.0540    81.5750 ha         1 D70       0.105000
    101 HAB         -8.5830    53.8900    79.2720 ha         1 D70       0.102000
    102 HAE         -7.4250    56.0560    78.9280 ha         1 D70       0.105000
    103 HAI         -6.6410    57.3550    80.8600 ha         1 D70       0.116500
    104 HAL1        -5.8260    56.5490    85.3630 hc         1 D70       0.063700
    105 HAL2        -6.9790    55.2810    85.0640 hc         1 D70       0.063700
    106 HAA         -3.6090    54.8890    82.9170 hn         1 D70       0.368400
    107 HAN1        -5.0080    53.8800    85.7830 hc         1 D70       0.057200
    108 HAN2        -5.9280    53.1830    84.4870 hc         1 D70       0.057200
    109 HAQ1        -3.8070    51.9390    84.8180 hc         1 D70       0.035033
    110 HAQ2        -3.8040    52.6720    83.2220 hc         1 D70       0.035033
    111 HAQ3        -2.8600    53.3910    84.5290 hc         1 D70       0.035033
    112 H1          -6.9810    58.4440    87.0830 hn         1 D70       0.349500
    113 H11        -10.0190    56.0740    86.0260 hn         1 D70       0.333500
@<TRIPOS>BOND
     1     1     2 1   
     2     1     3 1   
     3     1     4 1   
     4     1    53 1   
     5     4     5 1   
     6     5     6 1   
     7     5    66 1   
     8     5    67 1   
     9     6     7 1   
    10     6     8 1   
    11     6    68 1   
    12     7    12 1   
    13     8     9 1   
    14     8    10 1   
    15     8    69 1   
    16     9    71 1   
    17    10    11 1   
    18    10    12 1   
    19    10    72 1   
    20    11    73 1   
    21    12    13 1   
    22    12    70 1   
    23    13    14 1   
    24    13    22 1   
    25    14    15 2   
    26    14    74 1   
    27    15    16 1   
    28    16    17 ar  
    29    16    22 ar  
    30    17    18 1   
    31    17    19 ar  
    32    18    75 1   
    33    18    76 1   
    34    19    20 ar  
    35    20    21 ar  
    36    20    77 1   
    37    21    22 ar  
    38    23    24 1   
    39    23    40 1   
    40    23   112 1   
    41    24    25 2   
    42    24    26 1   
    43    26    27 1   
    44    26   113 1   
    45    27    28 2   
    46    27    29 1   
    47    29    30 1   
    48    29    40 1   
    49    29    60 1   
    50    30    31 1   
    51    30    79 1   
    52    31    32 ar  
    53    31    38 ar  
    54    32    33 ar  
    55    32    81 1   
    56    33    34 1   
    57    33    35 ar  
    58    34    82 1   
    59    34    83 1   
    60    34    84 1   
    61    35    36 1   
    62    35    37 ar  
    63    36    85 1   
    64    36    86 1   
    65    36    87 1   
    66    37    38 ar  
    67    37    88 1   
    68    38    39 1   
    69    39    40 1   
    70    39    41 1   
    71    40    78 1   
    72    41    42 1   
    73    41    89 1   
    74    41    90 1   
    75    42    43 1   
    76    42    44 1   
    77    42    91 1   
    78    43    92 1   
    79    44    45 1   
    80    44    46 1   
    81    44    93 1   
    82    45    94 1   
    83    46    47 1   
    84    46    48 1   
    85    46    95 1   
    86    47    96 1   
    87    48    49 1   
    88    48    97 1   
    89    48    98 1   
    90    49    50 1   
    91    50    51 1   
    92    50    52 1   
    93    50    53 1   
    94    54    55 ar  
    95    54    59 ar  
    96    54    99 1   
    97    55    56 ar  
    98    55   100 1   
    99    56    57 ar  
   100    56   101 1   
   101    57    58 ar  
   102    57   102 1   
   103    58    59 ar  
   104    58   103 1   
   105    59    60 1   
   106    60    61 1   
   107    60    80 1   
   108    61    62 1   
   109    61   104 1   
   110    61   105 1   
   111    62    63 2   
   112    62    64 1   
   113    63   106 1   
   114    64    65 1   
   115    64   107 1   
   116    64   108 1   
   117    65   109 1   
   118    65   110 1   
   119    65   111 1   
@<TRIPOS>SUBSTRUCTURE
     1 D70         1 TEMP              0 ****  ****    0 ROOT
