@<TRIPOS>MOLECULE
D71
   41    44     1     0     0
SMALL
abcg2


@<TRIPOS>ATOM
      1 C1           0.8670     3.8780     0.2250 ca         1 D71       0.022000
      2 C2           0.8040     2.4950     0.3470 ca         1 D71      -0.260600
      3 C3          -0.3260     1.8480    -0.1470 ca         1 D71       0.523900
      4 C5          -1.2590     3.7940    -0.8290 ca         1 D71       0.409900
      5 C6          -0.1830     4.5460    -0.3740 ca         1 D71      -0.207000
      6 C14          0.5700    -0.2990     0.5350 c          1 D71       0.626000
      7 O56         -4.8870    -0.8300     1.6980 o          1 D71      -0.395500
      8 O58         -5.8760    -1.8200     0.0880 o          1 D71      -0.395500
      9 C40         -3.7510    -1.0590    -0.2740 ca         1 D71      -0.174200
     10 C39         -2.6590    -0.3860     0.2510 ca         1 D71      -0.023000
     11 C41         -3.7580    -1.5530    -1.5700 ca         1 D71      -0.037000
     12 C42         -2.6360    -1.3630    -2.3590 ca         1 D71      -0.115000
     13 C43         -1.5320    -0.6910    -1.8580 ca         1 D71      -0.042000
     14 C22         -1.5520    -0.2110    -0.5580 ca         1 D71       0.050600
     15 N13         -0.4120     0.4730    -0.0410 n          1 D71      -0.314500
     16 N4          -1.3360     2.4760    -0.7220 nb         1 D71      -0.713000
     17 O52          0.4690    -1.5010     0.6100 o          1 D71      -0.519000
     18 N15          1.6830     0.3650     1.0250 n          1 D71      -0.373400
     19 C16          1.8850     1.7360     0.9670 c          1 D71       0.602600
     20 O50          2.8940     2.2490     1.4000 o          1 D71      -0.513000
     21 C24          2.7010    -0.4840     1.6350 c3         1 D71       0.140300
     22 C26          3.4600    -1.2980     0.6240 ca         1 D71      -0.060300
     23 C32          3.9320    -0.7430    -0.5600 ca         1 D71      -0.148500
     24 C31          4.6600    -1.5390    -1.4300 ca         1 D71       0.335400
     25 N30          4.9470    -2.8150    -1.1960 nb         1 D71      -0.661000
     26 C29          4.4990    -3.3400    -0.0620 ca         1 D71       0.335400
     27 C28          3.7560    -2.6310     0.8700 ca         1 D71      -0.148500
     28 H1           1.7300     4.4140     0.5960 ha         1 D71       0.148000
     29 H5          -2.1030     4.2810    -1.3040 h4         1 D71       0.031100
     30 H6          -0.1770     5.6200    -0.4900 ha         1 D71       0.139000
     31 H39         -2.6580    -0.0050     1.2620 ha         1 D71       0.160000
     32 H41         -4.6160    -2.0770    -1.9650 ha         1 D71       0.154000
     33 H42         -2.6230    -1.7430    -3.3700 ha         1 D71       0.134000
     34 H43         -0.6570    -0.5420    -2.4770 ha         1 D71       0.134000
     35 H24          3.3910     0.1670     2.1690 h1         1 D71       0.084200
     36 H24A         2.2310    -1.1310     2.3740 h1         1 D71       0.084200
     37 H32          3.7460     0.2920    -0.8180 ha         1 D71       0.124500
     38 H31          5.0310    -1.1200    -2.3580 h4         1 D71       0.019600
     39 H29          4.7360    -4.3830     0.1180 h4         1 D71       0.019600
     40 H28          3.4100    -3.1220     1.7700 ha         1 D71       0.124500
     41 N54         -4.9260    -1.2510     0.5670 no         1 D71       0.697200
@<TRIPOS>BOND
     1     1     2 ar  
     2     1     5 ar  
     3     1    28 1   
     4     2     3 ar  
     5     2    19 1   
     6     3    15 1   
     7     3    16 ar  
     8     4     5 ar  
     9     4    16 ar  
    10     4    29 1   
    11     5    30 1   
    12     6    15 1   
    13     6    17 2   
    14     6    18 1   
    15     7    41 1   
    16     8    41 1   
    17     9    10 ar  
    18     9    11 ar  
    19     9    41 1   
    20    10    14 ar  
    21    10    31 1   
    22    11    12 ar  
    23    11    32 1   
    24    12    13 ar  
    25    12    33 1   
    26    13    14 ar  
    27    13    34 1   
    28    14    15 1   
    29    18    19 1   
    30    18    21 1   
    31    19    20 2   
    32    21    22 1   
    33    21    35 1   
    34    21    36 1   
    35    22    23 ar  
    36    22    27 ar  
    37    23    24 ar  
    38    23    37 1   
    39    24    25 ar  
    40    24    38 1   
    41    25    26 ar  
    42    26    27 ar  
    43    26    39 1   
    44    27    40 1   
@<TRIPOS>SUBSTRUCTURE
     1 D71         1 TEMP              0 ****  ****    0 ROOT
