@<TRIPOS>MOLECULE
D71
   41    44     1     0     0
SMALL
No Charge or Current Charge


@<TRIPOS>ATOM
      1 C1           0.8290     3.6630     0.1820 ca         1 D71       0.022000
      2 C2           0.7380     2.2640     0.3200 ca         1 D71      -0.260600
      3 C3          -0.3950     1.5960    -0.1530 ca         1 D71       0.523900
      4 C5          -1.2980     3.5930    -0.9450 ca         1 D71       0.409900
      5 C6          -0.2180     4.3350    -0.4580 ca         1 D71      -0.207000
      6 C14          0.5530    -0.5770     0.5220 c          1 D71       0.626000
      7 O56         -5.4950     0.8650     0.9660 o          1 D71      -0.395500
      8 O58         -6.5440    -0.7250    -0.0960 o          1 D71      -0.395500
      9 C40         -4.2010    -0.6520    -0.2830 ca         1 D71      -0.174200
     10 C39         -2.9880    -0.0040     0.0570 ca         1 D71      -0.023000
     11 C41         -4.1610    -1.7970    -1.1100 ca         1 D71      -0.037000
     12 C42         -2.9310    -2.2830    -1.5790 ca         1 D71      -0.115000
     13 C43         -1.7340    -1.6350    -1.2350 ca         1 D71      -0.042000
     14 C22         -1.7450    -0.4800    -0.4230 ca         1 D71       0.050600
     15 N13         -0.4910     0.1670    -0.0610 n          1 D71      -0.314500
     16 N4          -1.3820     2.2530    -0.8060 nb         1 D71      -0.713000
     17 O52          0.4610    -1.7900     0.6500 o          1 D71      -0.519000
     18 N15          1.6880     0.1030     0.9850 n          1 D71      -0.373400
     19 C16          1.8420     1.4880     0.9310 c          1 D71       0.602600
     20 O50          2.8390     2.0520     1.3600 o          1 D71      -0.513000
     21 C24          2.7990    -0.7020     1.5710 c3         1 D71       0.140300
     22 C26          3.8020    -1.1790     0.5270 ca         1 D71      -0.060300
     23 C32          4.8950    -0.3800     0.1460 ca         1 D71      -0.148500
     24 C31          5.7930    -0.8550    -0.8260 ca         1 D71       0.335400
     25 N30          5.6600    -2.0610    -1.4260 nb         1 D71      -0.661000
     26 C29          4.6090    -2.8320    -1.0600 ca         1 D71       0.335400
     27 C28          3.6660    -2.4330    -0.0970 ca         1 D71      -0.148500
     28 H1           1.6940     4.2170     0.5470 ha         1 D71       0.148000
     29 H5          -2.1220     4.0820    -1.4630 h4         1 D71       0.031100
     30 H6          -0.1910     5.4120    -0.5930 ha         1 D71       0.139000
     31 H39         -3.0030     0.8630     0.7130 ha         1 D71       0.160000
     32 H41         -5.0760    -2.3180    -1.3910 ha         1 D71       0.154000
     33 H42         -2.9040    -3.1660    -2.2140 ha         1 D71       0.134000
     34 H43         -0.7940    -2.0220    -1.6200 ha         1 D71       0.134000
     35 H24          3.3290    -0.1160     2.3350 h1         1 D71       0.084200
     36 H24A         2.3930    -1.5700     2.1060 h1         1 D71       0.084200
     37 H32          5.0560     0.5980     0.5910 ha         1 D71       0.124500
     38 H31          6.6450    -0.2510    -1.1350 h4         1 D71       0.019600
     39 H29          4.5210    -3.7980    -1.5540 h4         1 D71       0.019600
     40 H28          2.8430    -3.0960     0.1550 ha         1 D71       0.124500
     41 N54         -5.5080    -0.1320     0.2320 no         1 D71       0.697200
@<TRIPOS>BOND
     1     1     2 ar  
     2     1     5 ar  
     3     1    28 1   
     4     2     3 ar  
     5     2    19 1   
     6     3    15 1   
     7     3    16 ar  
     8     4     5 ar  
     9     4    16 ar  
    10     4    29 1   
    11     5    30 1   
    12     6    15 1   
    13     6    17 2   
    14     6    18 1   
    15     7    41 1   
    16     8    41 1   
    17     9    10 ar  
    18     9    11 ar  
    19     9    41 1   
    20    10    14 ar  
    21    10    31 1   
    22    11    12 ar  
    23    11    32 1   
    24    12    13 ar  
    25    12    33 1   
    26    13    14 ar  
    27    13    34 1   
    28    14    15 1   
    29    18    19 1   
    30    18    21 1   
    31    19    20 2   
    32    21    22 1   
    33    21    35 1   
    34    21    36 1   
    35    22    23 ar  
    36    22    27 ar  
    37    23    24 ar  
    38    23    37 1   
    39    24    25 ar  
    40    24    38 1   
    41    25    26 ar  
    42    26    27 ar  
    43    26    39 1   
    44    27    40 1   
@<TRIPOS>SUBSTRUCTURE
     1 D71         1 TEMP              0 ****  ****    0 ROOT
