@<TRIPOS>MOLECULE
D72
   36    37     1     0     0
SMALL
No Charge or Current Charge


@<TRIPOS>ATOM
      1 C1           0.2070     2.1440     0.1270 ca         1 D72      -0.064000
      2 C2           0.9220    -0.5710    -0.1780 ca         1 D72       0.067000
      3 C3          -0.7650     1.1940    -0.2320 ca         1 D72      -0.080800
      4 C4           1.5360     1.7400     0.3410 ca         1 D72       0.071000
      5 C5           1.8970     0.3830     0.1830 ca         1 D72       0.124100
      6 C6          -0.4130    -0.1640    -0.3760 ca         1 D72       0.153100
      7 C7          -2.1680     1.5760    -0.5020 ce         1 D72      -0.171200
      8 Cl8          2.7330     2.9520     0.8040 cl         1 D72      -0.210000
      9 O9           3.2000    -0.0150     0.3870 os         1 D72      -0.351100
     10 O10         -1.3730    -1.0910    -0.7530 os         1 D72      -0.324100
     11 C11         -3.1640     0.6590    -0.6600 cf         1 D72      -0.182400
     12 C12         -4.5770     1.0280    -1.0140 c          1 D72       0.721200
     13 C13         -2.7810    -0.8280    -0.4800 c6         1 D72       0.153500
     14 C14         -3.0890    -1.3140     0.9810 c3         1 D72       0.271000
     15 O15         -5.3800     0.1300    -1.2150 o          1 D72      -0.702000
     16 O16         -4.8620     2.2130    -1.1170 o          1 D72      -0.702000
     17 C17          4.1290     0.0680    -0.7040 c3         1 D72       0.166600
     18 C18          5.4940    -0.4900    -0.2300 c3         1 D72      -0.061700
     19 C19          5.4120    -1.9830     0.1700 c3         1 D72      -0.086100
     20 C20          6.5880    -0.2600    -1.2960 c3         1 D72      -0.086100
     21 F21         -2.4080    -0.6060     1.9140 f          1 D72      -0.115667
     22 F22         -4.4020    -1.2080     1.2870 f          1 D72      -0.115667
     23 F23         -2.7520    -2.6150     1.1470 f          1 D72      -0.115667
     24 Cl24         1.3680    -2.2730    -0.3730 cl         1 D72      -0.179000
     25 H1          -0.0630     3.1910     0.2390 ha         1 D72       0.133000
     26 H7          -2.3760     2.6440    -0.6050 ha         1 D72       0.214000
     27 H13         -3.3790    -1.4520    -1.1600 h1         1 D72       0.143700
     28 H17          3.7710    -0.5150    -1.5630 h1         1 D72       0.036200
     29 H17A         4.2490     1.1110    -1.0250 h1         1 D72       0.036200
     30 H18          5.7870     0.0780     0.6620 hc         1 D72       0.057700
     31 H19          4.6940    -2.1340     0.9850 hc         1 D72       0.033700
     32 H19A         5.0970    -2.5980    -0.6820 hc         1 D72       0.033700
     33 H19B         6.3880    -2.3460     0.5120 hc         1 D72       0.033700
     34 H20          6.6780     0.8070    -1.5360 hc         1 D72       0.033700
     35 H20A         7.5630    -0.6070    -0.9330 hc         1 D72       0.033700
     36 H20B         6.3530    -0.8010    -2.2210 hc         1 D72       0.033700
@<TRIPOS>BOND
     1     1     3 ar  
     2     1     4 ar  
     3     1    25 1   
     4     2     5 ar  
     5     2     6 ar  
     6     2    24 1   
     7     3     6 ar  
     8     3     7 1   
     9     4     5 ar  
    10     4     8 1   
    11     5     9 1   
    12     6    10 1   
    13     7    11 2   
    14     7    26 1   
    15     9    17 1   
    16    10    13 1   
    17    11    12 1   
    18    11    13 1   
    19    12    15 1   
    20    12    16 1   
    21    13    14 1   
    22    13    27 1   
    23    14    21 1   
    24    14    22 1   
    25    14    23 1   
    26    17    18 1   
    27    17    28 1   
    28    17    29 1   
    29    18    19 1   
    30    18    20 1   
    31    18    30 1   
    32    19    31 1   
    33    19    32 1   
    34    19    33 1   
    35    20    34 1   
    36    20    35 1   
    37    20    36 1   
@<TRIPOS>SUBSTRUCTURE
     1 D72         1 TEMP              0 ****  ****    0 ROOT
