@<TRIPOS>MOLECULE
D72
   36    37     1     0     0
SMALL
bcc


@<TRIPOS>ATOM
      1 C1           0.2170     2.1630     0.1880 ca         1 D72      -0.082000
      2 C2           0.9590    -0.4900    -0.1120 ca         1 D72      -0.024600
      3 C3          -0.7360     1.2220    -0.1790 ca         1 D72      -0.080800
      4 C4           1.5270     1.7790     0.4070 ca         1 D72      -0.020600
      5 C5           1.9210     0.4500     0.2640 ca         1 D72       0.124100
      6 C6          -0.3600    -0.1150    -0.3150 ca         1 D72       0.153100
      7 C7          -2.1100     1.5650    -0.4920 ce         1 D72      -0.121200
      8 CL8          2.7040     2.9460     0.8890 cl         1 D72      -0.118400
      9 O9           3.1830     0.0680     0.5070 os         1 D72      -0.327900
     10 O10         -1.2410    -1.0530    -0.7070 os         1 D72      -0.300900
     11 C11         -3.0300     0.6160    -0.6750 cf         1 D72      -0.182400
     12 C12         -4.4510     0.9190    -1.1170 c          1 D72       0.931800
     13 C13         -2.6220    -0.8150    -0.4760 c6         1 D72       0.130300
     14 C14         -2.9460    -1.2980     0.9370 c3         1 D72       0.634900
     15 O15         -5.1310    -0.0670    -1.4600 o          1 D72      -0.807300
     16 O16         -4.7940     2.1130    -1.1110 o          1 D72      -0.807300
     17 C17          4.0680     0.1080    -0.6230 c3         1 D72       0.143400
     18 C18          5.4010    -0.4940    -0.2240 c3         1 D72      -0.061700
     19 C19          5.2650    -1.9600     0.1730 c3         1 D72      -0.086100
     20 C20          6.3840    -0.3310    -1.3800 c3         1 D72      -0.086100
     21 F21         -2.2310    -0.6440     1.8620 f          1 D72      -0.236967
     22 F22         -4.2340    -1.1120     1.2290 f          1 D72      -0.236967
     23 F23         -2.6800    -2.5990     1.0870 f          1 D72      -0.236967
     24 CL24         1.4130    -2.1380    -0.2900 cl         1 D72      -0.087400
     25 H1          -0.0700     3.2020     0.2930 ha         1 D72       0.151000
     26 H7          -2.3670     2.6100    -0.6200 ha         1 D72       0.164000
     27 H13         -3.1580    -1.4590    -1.1760 h1         1 D72       0.143700
     28 H17          3.6330    -0.4550    -1.4570 h1         1 D72       0.036200
     29 H17A         4.1980     1.1460    -0.9470 h1         1 D72       0.036200
     30 H18          5.7830     0.0730     0.6310 hc         1 D72       0.057700
     31 H19          4.5850    -2.0980     1.0130 hc         1 D72       0.033700
     32 H19A         4.8840    -2.5530    -0.6630 hc         1 D72       0.033700
     33 H19B         6.2330    -2.3740     0.4580 hc         1 D72       0.033700
     34 H20          6.5230     0.7180    -1.6480 hc         1 D72       0.033700
     35 H20A         7.3600    -0.7370    -1.1140 hc         1 D72       0.033700
     36 H20B         6.0380    -0.8600    -2.2710 hc         1 D72       0.033700
@<TRIPOS>BOND
     1     1     3 ar  
     2     1     4 ar  
     3     1    25 1   
     4     2     5 ar  
     5     2     6 ar  
     6     2    24 1   
     7     3     6 ar  
     8     3     7 1   
     9     4     5 ar  
    10     4     8 1   
    11     5     9 1   
    12     6    10 1   
    13     7    11 2   
    14     7    26 1   
    15     9    17 1   
    16    10    13 1   
    17    11    12 1   
    18    11    13 1   
    19    12    15 1   
    20    12    16 1   
    21    13    14 1   
    22    13    27 1   
    23    14    21 1   
    24    14    22 1   
    25    14    23 1   
    26    17    18 1   
    27    17    28 1   
    28    17    29 1   
    29    18    19 1   
    30    18    20 1   
    31    18    30 1   
    32    19    31 1   
    33    19    32 1   
    34    19    33 1   
    35    20    34 1   
    36    20    35 1   
    37    20    36 1   
@<TRIPOS>SUBSTRUCTURE
     1 D72         1 TEMP              0 ****  ****    0 ROOT
