@<TRIPOS>MOLECULE
D74
   32    33     1     0     0
SMALL
bcc


@<TRIPOS>ATOM
      1 C4         -11.6820     1.1730    -0.6440 ca         1 D74      -0.127000
      2 C5         -10.9050     1.9290     0.2280 ca         1 D74      -0.076300
      3 C6         -11.4160     3.1400     0.6950 ca         1 D74      -0.124000
      4 C7          -9.5530     1.4460     0.6730 c5         1 D74      -0.019400
      5 C8          -8.3820     2.4320     0.4100 c5         1 D74      -0.074400
      6 C9          -7.5710     2.5070     1.7040 c5         1 D74       0.148100
      7 C10         -7.9770     1.2310     2.4400 c5         1 D74       0.105100
      8 C11         -9.4750     1.1370     2.1750 c5         1 D74       0.133500
      9 O1          -7.9600     3.6630     2.4180 oh         1 D74      -0.599800
     10 O           -7.6180     1.2940     3.7990 oh         1 D74      -0.604800
     11 N          -10.0250    -0.1650     2.4970 n8         1 D74      -0.888800
     12 C3         -12.9360     1.6240    -1.0400 ca         1 D74      -0.128000
     13 C2         -13.4270     2.8290    -0.5650 ca         1 D74      -0.128000
     14 C1         -12.6710     3.6030     0.3160 ca         1 D74      -0.077300
     15 C          -13.2110     4.8930     0.8660 c3         1 D74      -0.046800
     16 H1         -11.3040     0.2290    -1.0190 ha         1 D74       0.130000
     17 H2         -10.8170     3.7410     1.3720 ha         1 D74       0.142000
     18 H3          -9.3390     0.5070     0.1530 hc         1 D74       0.064700
     19 H4          -7.7640     2.0670    -0.4100 hc         1 D74       0.062200
     20 H5          -8.7280     3.4250     0.1220 hc         1 D74       0.062200
     21 H6          -6.4910     2.5250     1.5090 h1         1 D74       0.044700
     22 H7          -7.4910     0.3820     1.9390 h1         1 D74       0.050700
     23 H8          -9.9630     1.9550     2.7270 h1         1 D74       0.048700
     24 H9          -7.5540     3.6260     3.2910 ho         1 D74       0.419000
     25 H10         -7.4630     0.4040     4.1260 ho         1 D74       0.415000
     26 H11         -9.9950    -0.3030     3.5000 hn         1 D74       0.343300
     27 H12        -11.0110    -0.1810     2.2630 hn         1 D74       0.343300
     28 H14        -13.5290     1.0320    -1.7260 ha         1 D74       0.130000
     29 H15        -14.4050     3.1750    -0.8820 ha         1 D74       0.128000
     30 H16        -13.7760     4.7190     1.7840 hc         1 D74       0.042033
     31 H17        -12.4100     5.5920     1.1070 hc         1 D74       0.042033
     32 H18        -13.8840     5.3800     0.1610 hc         1 D74       0.042033
@<TRIPOS>BOND
     1     1     2 ar  
     2     1    12 ar  
     3     1    16 1   
     4     2     3 ar  
     5     2     4 1   
     6     3    14 ar  
     7     3    17 1   
     8     4     5 1   
     9     4     8 1   
    10     4    18 1   
    11     5     6 1   
    12     5    19 1   
    13     5    20 1   
    14     6     7 1   
    15     6     9 1   
    16     6    21 1   
    17     7     8 1   
    18     7    10 1   
    19     7    22 1   
    20     8    11 1   
    21     8    23 1   
    22     9    24 1   
    23    10    25 1   
    24    11    26 1   
    25    11    27 1   
    26    12    13 ar  
    27    12    28 1   
    28    13    14 ar  
    29    13    29 1   
    30    14    15 1   
    31    15    30 1   
    32    15    31 1   
    33    15    32 1   
@<TRIPOS>SUBSTRUCTURE
     1 D74         1 TEMP              0 ****  ****    0 ROOT
