@<TRIPOS>MOLECULE
D74
   32    33     1     0     0
SMALL
No Charge or Current Charge


@<TRIPOS>ATOM
      1 C4         -11.6160     1.1660    -0.7030 ca         1 D74      -0.109000
      2 C5         -10.8640     1.9050     0.2320 ca         1 D74      -0.076300
      3 C6         -11.4190     3.0970     0.7540 ca         1 D74      -0.106000
      4 C7          -9.4750     1.3930     0.6500 c5         1 D74      -0.019400
      5 C8          -8.3990     2.5010     0.3650 c5         1 D74      -0.074400
      6 C9          -7.4580     2.4900     1.6200 c5         1 D74       0.171300
      7 C10         -7.8790     1.1890     2.3800 c5         1 D74       0.128300
      8 C11         -9.4280     1.2260     2.1990 c5         1 D74       0.133500
      9 O1          -7.6640     3.6450     2.4370 oh         1 D74      -0.662000
     10 O           -7.4700     1.1970     3.7570 oh         1 D74      -0.667000
     11 N          -10.1350     0.0220     2.6910 n8         1 D74      -0.999200
     12 C3         -12.8900     1.6020    -1.1060 ca         1 D74      -0.110000
     13 C2         -13.4290     2.7860    -0.5790 ca         1 D74      -0.110000
     14 C1         -12.6940     3.5400     0.3520 ca         1 D74      -0.077300
     15 C          -13.2730     4.8240     0.9280 c3         1 D74      -0.046800
     16 H1         -11.2140     0.2460    -1.1220 ha         1 D74       0.112000
     17 H2         -10.8600     3.6890     1.4750 ha         1 D74       0.124000
     18 H3          -9.2060     0.4550     0.1460 hc         1 D74       0.064700
     19 H4          -7.8390     2.2620    -0.5460 hc         1 D74       0.062200
     20 H5          -8.8270     3.4950     0.2000 hc         1 D74       0.062200
     21 H6          -6.4030     2.4340     1.3170 h1         1 D74       0.044700
     22 H7          -7.4570     0.3080     1.8740 h1         1 D74       0.050700
     23 H8          -9.8650     2.0960     2.7090 h1         1 D74       0.048700
     24 H9          -7.5340     3.3090     3.3550 ho         1 D74       0.458000
     25 H10         -7.8700     0.3930     4.1600 ho         1 D74       0.454000
     26 H11        -10.3610     0.1460     3.6850 hn         1 D74       0.398500
     27 H12        -11.0600    -0.0160     2.2460 hn         1 D74       0.398500
     28 H14        -13.4590     1.0200    -1.8270 ha         1 D74       0.112000
     29 H15        -14.4160     3.1150    -0.8950 ha         1 D74       0.110000
     30 H16        -13.7800     4.6300     1.8800 hc         1 D74       0.042033
     31 H17        -12.4880     5.5680     1.1100 hc         1 D74       0.042033
     32 H18        -14.0020     5.2770     0.2460 hc         1 D74       0.042033
@<TRIPOS>BOND
     1     1     2 ar  
     2     1    12 ar  
     3     1    16 1   
     4     2     3 ar  
     5     2     4 1   
     6     3    14 ar  
     7     3    17 1   
     8     4     5 1   
     9     4     8 1   
    10     4    18 1   
    11     5     6 1   
    12     5    19 1   
    13     5    20 1   
    14     6     7 1   
    15     6     9 1   
    16     6    21 1   
    17     7     8 1   
    18     7    10 1   
    19     7    22 1   
    20     8    11 1   
    21     8    23 1   
    22     9    24 1   
    23    10    25 1   
    24    11    26 1   
    25    11    27 1   
    26    12    13 ar  
    27    12    28 1   
    28    13    14 ar  
    29    13    29 1   
    30    14    15 1   
    31    15    30 1   
    32    15    31 1   
    33    15    32 1   
@<TRIPOS>SUBSTRUCTURE
     1 D74         1 TEMP              0 ****  ****    0 ROOT
