@<TRIPOS>MOLECULE
D75
   48    51     1     0     0
SMALL
abcg2


@<TRIPOS>ATOM
      1 C1          -3.3090    -0.6220    -0.0650 c6         1 D75       0.359300
      2 C2          -4.4010    -1.6870    -0.0090 c6         1 D75       0.100300
      3 O2          -4.0160    -2.8580    -0.6840 oh         1 D75      -0.733000
      4 C3          -5.6520    -1.1470    -0.6940 c6         1 D75       0.168300
      5 O3          -6.7340    -2.0340    -0.5630 oh         1 D75      -0.639000
      6 C4          -6.0420     0.1920    -0.0910 c6         1 D75       0.174300
      7 O4          -7.1080     0.7350    -0.8190 oh         1 D75      -0.763000
      8 C5          -4.8270     1.1380    -0.1140 c6         1 D75      -0.020700
      9 O5          -3.7300     0.5520     0.5520 os         1 D75      -0.426000
     10 C6          -5.1530     2.5020     0.5270 c          1 D75       0.733000
     11 O10         -2.2090    -1.1110     0.6470 os         1 D75      -0.346100
     12 C11          0.0760    -1.4300     0.8210 ca         1 D75      -0.198000
     13 C12         -0.9740    -0.6400     0.3830 ca         1 D75       0.223100
     14 C13         -0.7240     0.5690    -0.2850 ca         1 D75      -0.193000
     15 C14          0.5760     0.9500    -0.5250 ca         1 D75       0.002000
     16 C15          1.6580     0.1710    -0.1040 ca         1 D75      -0.271600
     17 C16          1.3750    -1.0120     0.5750 ca         1 D75       0.165100
     18 C17          3.0430     0.5640    -0.3690 c          1 D75       0.606900
     19 C18          4.0440    -0.3770     0.1310 cc         1 D75      -0.233400
     20 C19          3.6370    -1.4820     0.7850 cd         1 D75       0.043100
     21 O20          2.3650    -1.8170     1.0150 os         1 D75      -0.208200
     22 C21          5.4820    -0.1520    -0.1010 ca         1 D75      -0.055800
     23 C22          6.2750    -1.1520    -0.6610 ca         1 D75      -0.054000
     24 C23          7.6360    -0.9760    -0.8510 ca         1 D75      -0.180000
     25 C24          8.2360     0.2260    -0.4860 ca         1 D75       0.134100
     26 C25          7.4550     1.2390     0.0660 ca         1 D75      -0.180000
     27 C26          6.0960     1.0490     0.2510 ca         1 D75      -0.054000
     28 O27          3.3310     1.5880    -0.9710 o          1 D75      -0.549100
     29 O28          9.5610     0.3570    -0.6860 oh         1 D75      -0.539100
     30 O6A         -6.2660     2.9810     0.1800 o          1 D75      -0.693500
     31 O6B         -4.3300     3.0130     1.2850 o          1 D75      -0.693500
     32 H1          -3.0290    -0.4370    -1.1170 h2         1 D75       0.034700
     33 H2          -4.6320    -1.8870     1.0480 h1         1 D75       0.065700
     34 H3          -5.4090    -0.9810    -1.7570 h1         1 D75       0.039700
     35 H4          -6.3190     0.0240     0.9650 h1         1 D75       0.044700
     36 H5          -4.5690     1.3250    -1.1720 h1         1 D75       0.029700
     37 H22          5.8220    -2.0870    -0.9680 ha         1 D75       0.119500
     38 H13         -1.5300     1.2170    -0.5980 ha         1 D75       0.160000
     39 H23          8.2310    -1.7660    -1.2900 ha         1 D75       0.117000
     40 H14          0.7700     1.8780    -1.0450 ha         1 D75       0.137000
     41 H25          7.9090     2.1790     0.3610 ha         1 D75       0.117000
     42 H26          5.5170     1.8470     0.6980 ha         1 D75       0.119500
     43 HO28         9.8620     1.2240    -0.3910 ho         1 D75       0.462000
     44 HO2         -3.4070    -3.3540    -0.1290 ho         1 D75       0.508000
     45 HO3         -6.4900    -2.8660    -0.9800 ho         1 D75       0.435000
     46 HO4         -7.0760     1.6910    -0.5790 ho         1 D75       0.572000
     47 H19          4.3190    -2.2130     1.1990 h4         1 D75       0.222000
     48 H11         -0.1130    -2.3620     1.3390 ha         1 D75       0.139000
@<TRIPOS>BOND
     1     1     2 1   
     2     1     9 1   
     3     1    11 1   
     4     1    32 1   
     5     2     3 1   
     6     2     4 1   
     7     2    33 1   
     8     3    44 1   
     9     4     5 1   
    10     4     6 1   
    11     4    34 1   
    12     5    45 1   
    13     6     7 1   
    14     6     8 1   
    15     6    35 1   
    16     7    46 1   
    17     8     9 1   
    18     8    10 1   
    19     8    36 1   
    20    10    30 1   
    21    10    31 1   
    22    11    13 1   
    23    12    13 ar  
    24    12    17 ar  
    25    12    48 1   
    26    13    14 ar  
    27    14    15 ar  
    28    14    38 1   
    29    15    16 ar  
    30    15    40 1   
    31    16    17 ar  
    32    16    18 1   
    33    17    21 1   
    34    18    19 1   
    35    18    28 2   
    36    19    20 2   
    37    19    22 1   
    38    20    21 1   
    39    20    47 1   
    40    22    23 ar  
    41    22    27 ar  
    42    23    24 ar  
    43    23    37 1   
    44    24    25 ar  
    45    24    39 1   
    46    25    26 ar  
    47    25    29 1   
    48    26    27 ar  
    49    26    41 1   
    50    27    42 1   
    51    29    43 1   
@<TRIPOS>SUBSTRUCTURE
     1 D75         1 TEMP              0 ****  ****    0 ROOT
