@<TRIPOS>MOLECULE
D75
   48    51     1     0     0
SMALL
No Charge or Current Charge


@<TRIPOS>ATOM
      1 C1          -3.4070    -0.7890    -0.2700 c6         1 D75       0.359300
      2 C2          -4.6650    -1.6900    -0.0520 c6         1 D75       0.100300
      3 O2          -4.5680    -2.9680    -0.7340 oh         1 D75      -0.733000
      4 C3          -5.9170    -0.9040    -0.5320 c6         1 D75       0.168300
      5 O3          -7.1050    -1.6860    -0.3230 oh         1 D75      -0.639000
      6 C4          -6.0180     0.4650     0.2110 c6         1 D75       0.174300
      7 O4          -7.1570     1.2000    -0.2690 oh         1 D75      -0.763000
      8 C5          -4.6940     1.2640     0.0310 c6         1 D75      -0.020700
      9 O5          -3.5700     0.4370     0.4750 os         1 D75      -0.426000
     10 C6          -4.7850     2.6410     0.7700 c          1 D75       0.733000
     11 O10         -2.2250    -1.4760     0.1800 os         1 D75      -0.346100
     12 C11          0.1240    -1.6630     0.4930 ca         1 D75      -0.198000
     13 C12         -0.9630    -0.9600    -0.0430 ca         1 D75       0.223100
     14 C13         -0.7260     0.2160    -0.7880 ca         1 D75      -0.193000
     15 C14          0.5880     0.6760    -0.9830 ca         1 D75       0.002000
     16 C15          1.6740    -0.0370    -0.4370 ca         1 D75      -0.271600
     17 C16          1.4340    -1.2040     0.2990 ca         1 D75       0.165100
     18 C17          3.0820     0.4270    -0.6280 c          1 D75       0.606900
     19 C18          4.1170    -0.4190     0.0070 cc         1 D75      -0.233400
     20 C19          3.7900    -1.5580     0.7210 cd         1 D75       0.043100
     21 O20          2.4740    -1.9210     0.8410 os         1 D75      -0.208200
     22 C21          5.5490    -0.1170    -0.0580 ca         1 D75      -0.055800
     23 C22          6.4670    -1.0900    -0.5040 ca         1 D75      -0.054000
     24 C23          7.8410    -0.7950    -0.5610 ca         1 D75      -0.180000
     25 C24          8.3060     0.4690    -0.1740 ca         1 D75       0.134100
     26 C25          7.4000     1.4440     0.2710 ca         1 D75      -0.180000
     27 C26          6.0250     1.1520     0.3280 ca         1 D75      -0.054000
     28 O27          3.3430     1.4350    -1.2730 o          1 D75      -0.549100
     29 O28          9.6390     0.7450    -0.2330 oh         1 D75      -0.539100
     30 O6A         -4.7890     3.6250     0.0390 o          1 D75      -0.693500
     31 O6B         -4.2440     2.7140     1.8680 o          1 D75      -0.693500
     32 H1          -3.3100    -0.5640    -1.3430 h2         1 D75       0.034700
     33 H2          -4.7630    -1.8570     1.0320 h1         1 D75       0.065700
     34 H3          -5.7960    -0.7040    -1.6080 h1         1 D75       0.039700
     35 H4          -6.1420     0.2620     1.2860 h1         1 D75       0.044700
     36 H5          -4.5530     1.4790    -1.0390 h1         1 D75       0.029700
     37 H22          6.1170    -2.0720    -0.8160 ha         1 D75       0.119500
     38 H13         -1.5420     0.7860    -1.2200 ha         1 D75       0.160000
     39 H23          8.5430    -1.5490    -0.9090 ha         1 D75       0.117000
     40 H14          0.7550     1.5860    -1.5580 ha         1 D75       0.137000
     41 H25          7.7510     2.4280     0.5740 ha         1 D75       0.117000
     42 H26          5.3300     1.9110     0.6790 ha         1 D75       0.119500
     43 HO28         9.7780     1.6670     0.0720 ho         1 D75       0.462000
     44 HO2         -3.6960    -3.3580    -0.4800 ho         1 D75       0.508000
     45 HO3         -6.8300    -2.6090    -0.5290 ho         1 D75       0.435000
     46 HO4         -7.8670     0.5170    -0.3800 ho         1 D75       0.572000
     47 H19          4.4790    -2.2280     1.2270 h4         1 D75       0.222000
     48 H11         -0.0500    -2.5700     1.0640 ha         1 D75       0.139000
@<TRIPOS>BOND
     1     1     2 1   
     2     1     9 1   
     3     1    11 1   
     4     1    32 1   
     5     2     3 1   
     6     2     4 1   
     7     2    33 1   
     8     3    44 1   
     9     4     5 1   
    10     4     6 1   
    11     4    34 1   
    12     5    45 1   
    13     6     7 1   
    14     6     8 1   
    15     6    35 1   
    16     7    46 1   
    17     8     9 1   
    18     8    10 1   
    19     8    36 1   
    20    10    30 1   
    21    10    31 1   
    22    11    13 1   
    23    12    13 ar  
    24    12    17 ar  
    25    12    48 1   
    26    13    14 ar  
    27    14    15 ar  
    28    14    38 1   
    29    15    16 ar  
    30    15    40 1   
    31    16    17 ar  
    32    16    18 1   
    33    17    21 1   
    34    18    19 1   
    35    18    28 2   
    36    19    20 2   
    37    19    22 1   
    38    20    21 1   
    39    20    47 1   
    40    22    23 ar  
    41    22    27 ar  
    42    23    24 ar  
    43    23    37 1   
    44    24    25 ar  
    45    24    39 1   
    46    25    26 ar  
    47    25    29 1   
    48    26    27 ar  
    49    26    41 1   
    50    27    42 1   
    51    29    43 1   
@<TRIPOS>SUBSTRUCTURE
     1 D75         1 TEMP              0 ****  ****    0 ROOT
