@<TRIPOS>MOLECULE
D76
   59    63     1     0     0
SMALL
abcg2


@<TRIPOS>ATOM
      1 CZ7         -8.6140     3.0550     0.5550 c3         1 D76       0.151100
      2 NZ2         -7.3470     2.3580     0.5510 n3         1 D76      -0.711600
      3 CZ3         -7.1540     1.6600    -0.7060 c6         1 D76       0.246100
      4 CZ4         -6.2350     3.2450     0.8500 c6         1 D76       0.165800
      5 CZ5         -4.9720     2.4490     1.1590 c6         1 D76      -0.098700
      6 CZ6         -4.7940     1.3820     0.1340 cc         1 D76       0.290300
      7 CZ2         -5.8000     1.0340    -0.7190 cd         1 D76      -0.259300
      8 NZ1         -3.6390     0.6820    -0.0260 nc         1 D76      -0.639000
      9 CZ1         -3.7380    -0.1830    -0.9840 cd         1 D76       0.365900
     10 SZ1         -5.2710    -0.1970    -1.7780 ss         1 D76       0.117600
     11 CC1         -2.7210    -1.1180    -1.5350 c          1 D76       0.546600
     12 OC1         -2.9680    -1.6160    -2.6230 o          1 D76      -0.587100
     13 NP2         -1.5600    -1.3390    -0.8710 n          1 D76      -0.357800
     14 CP3         -0.6370    -2.3050    -1.4560 c6         1 D76       0.080000
     15 CP4          0.7900    -2.0380    -1.0160 c6         1 D76       0.181800
     16 CP2         -1.4480    -1.2110     0.5700 c6         1 D76       0.014700
     17 CC2         -2.1100    -2.4370     1.2210 c          1 D76       0.588100
     18 OC2         -3.1150    -2.9010     0.7050 o          1 D76      -0.607100
     19 NC2         -1.5930    -2.8930     2.3650 nt         1 D76      -0.592000
     20 CP1         -0.0070    -0.9280     0.9530 c6         1 D76       0.187800
     21 NP1          0.8390    -1.9980     0.4420 n3         1 D76      -0.722500
     22 S1           2.2980    -2.2470     1.1820 sy         1 D76       1.157600
     23 O1           2.9010    -3.4020     0.5440 o          1 D76      -0.534500
     24 O2           2.0320    -2.2610     2.6110 o          1 D76      -0.534500
     25 CN1          3.2810    -0.8230     0.8150 ca         1 D76      -0.306500
     26 CN2          3.1600     0.3220     1.6330 ca         1 D76      -0.039000
     27 CN3          3.8680     1.4460     1.3170 ca         1 D76      -0.106000
     28 CN4          4.7200     1.4750     0.1880 ca         1 D76       0.010000
     29 CN5          5.4590     2.6310    -0.1470 ca         1 D76      -0.106000
     30 CN9          4.8360     0.3160    -0.6200 ca         1 D76      -0.069000
     31 C10          4.0980    -0.8380    -0.2830 ca         1 D76       0.024000
     32 CN8          5.6930     0.3430    -1.7440 ca         1 D76      -0.074000
     33 CN7          6.4010     1.4680    -2.0570 ca         1 D76      -0.105000
     34 CN6          6.2730     2.6120    -1.2430 ca         1 D76       0.141000
     35 CL1          7.1830     4.0220    -1.6610 cl         1 D76      -0.188000
     36 HZ71        -8.6800     3.8470    -0.2060 h1         1 D76       0.033033
     37 HZ72        -9.4270     2.3500     0.3740 h1         1 D76       0.033033
     38 HZ73        -8.7820     3.5130     1.5310 h1         1 D76       0.033033
     39 HZ31        -7.9300     0.8980    -0.8140 h1         1 D76       0.047200
     40 HZ32        -7.2500     2.3340    -1.5750 h1         1 D76       0.047200
     41 HZ41        -6.0420     3.9460     0.0200 h1         1 D76       0.036200
     42 HZ42        -6.4990     3.8520     1.7170 h1         1 D76       0.036200
     43 HZ51        -4.1060     3.1130     1.1710 hc         1 D76       0.063700
     44 HZ52        -5.0420     2.0000     2.1550 hc         1 D76       0.063700
     45 HP31        -0.9260    -3.3250    -1.1800 h1         1 D76       0.074200
     46 HP32        -0.6790    -2.2340    -2.5390 h1         1 D76       0.074200
     47 HP41         1.4150    -2.8440    -1.3950 h1         1 D76       0.064700
     48 HP42         1.1440    -1.0920    -1.4430 h1         1 D76       0.064700
     49 HP2         -2.0240    -0.3460     0.9010 h1         1 D76       0.126700
     50 HC21        -0.7000    -2.6040     2.7230 hn         1 D76       0.321500
     51 HC22        -2.0280    -3.6790     2.8240 hn         1 D76       0.321500
     52 HP11         0.0780    -0.8330     2.0340 h1         1 D76       0.068200
     53 HP12         0.2810     0.0400     0.5250 h1         1 D76       0.068200
     54 HN2          2.5250     0.3140     2.5070 ha         1 D76       0.134000
     55 HN3          3.7850     2.3280     1.9400 ha         1 D76       0.123000
     56 HN5          5.3740     3.5170     0.4680 ha         1 D76       0.136000
     57 H10          4.1980    -1.7230    -0.9000 ha         1 D76       0.139000
     58 HN8          5.7850    -0.5410    -2.3620 ha         1 D76       0.125000
     59 HN7          7.0540     1.4860    -2.9180 ha         1 D76       0.136000
@<TRIPOS>BOND
     1     1     2 1   
     2     1    36 1   
     3     1    37 1   
     4     1    38 1   
     5     2     3 1   
     6     2     4 1   
     7     3     7 1   
     8     3    39 1   
     9     3    40 1   
    10     4     5 1   
    11     4    41 1   
    12     4    42 1   
    13     5     6 1   
    14     5    43 1   
    15     5    44 1   
    16     6     7 2   
    17     6     8 1   
    18     7    10 1   
    19     8     9 2   
    20     9    10 1   
    21     9    11 1   
    22    11    12 2   
    23    11    13 1   
    24    13    14 1   
    25    13    16 1   
    26    14    15 1   
    27    14    45 1   
    28    14    46 1   
    29    15    21 1   
    30    15    47 1   
    31    15    48 1   
    32    16    17 1   
    33    16    20 1   
    34    16    49 1   
    35    17    18 2   
    36    17    19 1   
    37    19    50 1   
    38    19    51 1   
    39    20    21 1   
    40    20    52 1   
    41    20    53 1   
    42    21    22 1   
    43    22    23 2   
    44    22    24 2   
    45    22    25 1   
    46    25    26 ar  
    47    25    31 ar  
    48    26    27 ar  
    49    26    54 1   
    50    27    28 ar  
    51    27    55 1   
    52    28    29 ar  
    53    28    30 ar  
    54    29    34 ar  
    55    29    56 1   
    56    30    31 ar  
    57    30    32 ar  
    58    31    57 1   
    59    32    33 ar  
    60    32    58 1   
    61    33    34 ar  
    62    33    59 1   
    63    34    35 1   
@<TRIPOS>SUBSTRUCTURE
     1 D76         1 TEMP              0 ****  ****    0 ROOT
