@<TRIPOS>MOLECULE
D76
   59    63     1     0     0
SMALL
No Charge or Current Charge


@<TRIPOS>ATOM
      1 CZ7         -8.5480     3.3140     0.4560 c3         1 D76       0.151100
      2 NZ2         -7.3120     2.5020     0.4590 n3         1 D76      -0.711600
      3 CZ3         -7.0930     1.8130    -0.8430 c6         1 D76       0.246100
      4 CZ4         -6.1150     3.2790     0.8810 c6         1 D76       0.165800
      5 CZ5         -4.9100     2.3500     1.1580 c6         1 D76      -0.098700
      6 CZ6         -4.7800     1.3200     0.0730 cc         1 D76       0.290300
      7 CZ2         -5.7830     1.0700    -0.8160 cd         1 D76      -0.259300
      8 NZ1         -3.6430     0.5730    -0.0700 nc         1 D76      -0.639000
      9 CZ1         -3.7730    -0.2910    -1.0910 cd         1 D76       0.365900
     10 SZ1         -5.3240    -0.1860    -1.9400 ss         1 D76       0.117600
     11 CC1         -2.7150    -1.2480    -1.6220 c          1 D76       0.546600
     12 OC1         -2.8990    -1.8600    -2.6740 o          1 D76      -0.587100
     13 NP2         -1.4730    -1.4380    -0.9240 n          1 D76      -0.357800
     14 CP3         -0.4820    -2.3990    -1.5150 c6         1 D76       0.080000
     15 CP4          0.9530    -2.3380    -0.9280 c6         1 D76       0.181800
     16 CP2         -1.3150    -1.2800     0.5750 c6         1 D76       0.014700
     17 CC2         -2.1540    -2.3170     1.3850 c          1 D76       0.588100
     18 OC2         -3.2630    -2.6830     1.0280 o          1 D76      -0.607100
     19 NC2         -1.6620    -2.7900     2.5550 nt         1 D76      -0.592000
     20 CP1          0.1680    -1.1800     1.0250 c6         1 D76       0.187800
     21 NP1          0.9550    -2.3380     0.5540 n3         1 D76      -0.722500
     22 S1           2.4930    -2.4960     1.2750 sy         1 D76       1.157600
     23 O1           3.1670    -3.5890     0.5670 o          1 D76      -0.534500
     24 O2           2.2470    -2.5750     2.7190 o          1 D76      -0.534500
     25 CN1          3.2890    -0.9310     0.8690 ca         1 D76      -0.306500
     26 CN2          3.1950     0.1670     1.7500 ca         1 D76      -0.039000
     27 CN3          3.8120     1.3860     1.4220 ca         1 D76      -0.106000
     28 CN4          4.5270     1.5180     0.2180 ca         1 D76       0.010000
     29 CN5          5.1430     2.7400    -0.1120 ca         1 D76      -0.106000
     30 CN9          4.6300     0.4180    -0.6630 ca         1 D76      -0.069000
     31 C10          4.0130    -0.8040    -0.3340 ca         1 D76       0.024000
     32 CN8          5.3480     0.5490    -1.8680 ca         1 D76      -0.074000
     33 CN7          5.9610     1.7730    -2.1910 ca         1 D76      -0.105000
     34 CN6          5.8580     2.8640    -1.3140 ca         1 D76       0.141000
     35 Cl1          6.6260     4.3930    -1.7220 cl         1 D76      -0.188000
     36 HZ71        -8.4780     4.1320    -0.2740 h1         1 D76       0.033033
     37 HZ72        -9.4180     2.6960     0.1980 h1         1 D76       0.033033
     38 HZ73        -8.7270     3.7510     1.4470 h1         1 D76       0.033033
     39 HZ31        -7.9160     1.1120    -1.0480 h1         1 D76       0.047200
     40 HZ32        -7.0760     2.5440    -1.6660 h1         1 D76       0.047200
     41 HZ41        -5.8420     4.0030     0.0980 h1         1 D76       0.036200
     42 HZ42        -6.3290     3.8570     1.7930 h1         1 D76       0.036200
     43 HZ51        -3.9950     2.9480     1.2490 hc         1 D76       0.063700
     44 HZ52        -5.0550     1.8500     2.1240 hc         1 D76       0.063700
     45 HP31        -0.8670    -3.4180    -1.3690 h1         1 D76       0.074200
     46 HP32        -0.4100    -2.2370    -2.6000 h1         1 D76       0.074200
     47 HP41         1.5140    -3.1970    -1.3250 h1         1 D76       0.064700
     48 HP42         1.4450    -1.4320    -1.3120 h1         1 D76       0.064700
     49 HP2         -1.7170    -0.3180     0.8990 h1         1 D76       0.126700
     50 HC21        -0.7250    -2.5560     2.8490 hn         1 D76       0.321500
     51 HC22        -2.2080    -3.4560     3.0810 hn         1 D76       0.321500
     52 HP11         0.2130    -1.0740     2.1190 h1         1 D76       0.068200
     53 HP12         0.5880    -0.2480     0.6170 h1         1 D76       0.068200
     54 HN2          2.6460     0.0830     2.6860 ha         1 D76       0.134000
     55 HN3          3.7310     2.2280     2.1050 ha         1 D76       0.123000
     56 HN5          5.0700     3.5910     0.5600 ha         1 D76       0.136000
     57 H10          4.0960    -1.6490    -1.0170 ha         1 D76       0.139000
     58 HN8          5.4330    -0.2920    -2.5530 ha         1 D76       0.125000
     59 HN7          6.5160     1.8750    -3.1210 ha         1 D76       0.136000
@<TRIPOS>BOND
     1     1     2 1   
     2     1    36 1   
     3     1    37 1   
     4     1    38 1   
     5     2     3 1   
     6     2     4 1   
     7     3     7 1   
     8     3    39 1   
     9     3    40 1   
    10     4     5 1   
    11     4    41 1   
    12     4    42 1   
    13     5     6 1   
    14     5    43 1   
    15     5    44 1   
    16     6     7 2   
    17     6     8 1   
    18     7    10 1   
    19     8     9 2   
    20     9    10 1   
    21     9    11 1   
    22    11    12 2   
    23    11    13 1   
    24    13    14 1   
    25    13    16 1   
    26    14    15 1   
    27    14    45 1   
    28    14    46 1   
    29    15    21 1   
    30    15    47 1   
    31    15    48 1   
    32    16    17 1   
    33    16    20 1   
    34    16    49 1   
    35    17    18 2   
    36    17    19 1   
    37    19    50 1   
    38    19    51 1   
    39    20    21 1   
    40    20    52 1   
    41    20    53 1   
    42    21    22 1   
    43    22    23 2   
    44    22    24 2   
    45    22    25 1   
    46    25    26 ar  
    47    25    31 ar  
    48    26    27 ar  
    49    26    54 1   
    50    27    28 ar  
    51    27    55 1   
    52    28    29 ar  
    53    28    30 ar  
    54    29    34 ar  
    55    29    56 1   
    56    30    31 ar  
    57    30    32 ar  
    58    31    57 1   
    59    32    33 ar  
    60    32    58 1   
    61    33    34 ar  
    62    33    59 1   
    63    34    35 1   
@<TRIPOS>SUBSTRUCTURE
     1 D76         1 TEMP              0 ****  ****    0 ROOT
