@<TRIPOS>MOLECULE
D77
   62    67     1     0     0
SMALL
abcg2


@<TRIPOS>ATOM
      1 CAA          7.9220     0.3260     1.2390 c3         1 D77       0.149900
      2 OAV          6.4940     0.4000     1.3370 os         1 D77      -0.432100
      3 CAX          5.8660    -0.6170     1.8800 c          1 D77       0.561100
      4 OAC          6.4020    -1.5960     2.3400 o          1 D77      -0.484000
      5 CBK          4.3560    -0.4300     1.9010 c3         1 D77       0.087300
      6 OAJ          3.8060    -1.2730     2.8750 oh         1 D77      -0.641000
      7 CBM          3.7190    -0.7950     0.5230 c3         1 D77       0.214000
      8 CAB          4.4360    -0.1820    -0.6740 c3         1 D77      -0.091100
      9 OAK          3.8630    -2.1850     0.3590 oh         1 D77      -0.713000
     10 CBO          2.1890    -0.4450     0.5750 cx         1 D77       0.070000
     11 OAW          1.7140     0.0860     1.7880 op         1 D77      -0.361000
     12 CBN          1.5630     0.8930     0.6310 cx         1 D77       0.159300
     13 CBB          0.1090     1.0320     0.2490 ca         1 D77      -0.073300
     14 CAT         -0.4790     2.2540     0.0590 ca         1 D77      -0.060000
     15 CAZ         -1.8620     2.3920    -0.1470 ca         1 D77       0.175100
     16 OAG         -2.3180     3.6270    -0.3260 oh         1 D77      -0.544100
     17 CBH         -2.6750     1.2640    -0.1240 ca         1 D77      -0.215600
     18 CBD         -4.1140     1.4290    -0.3140 c          1 D77       0.614300
     19 OAD         -4.6080     2.5500    -0.4710 o          1 D77      -0.575100
     20 CBF         -4.9610     0.2390    -0.3140 ca         1 D77      -0.128600
     21 CAS         -6.3270     0.3680    -0.4820 ca         1 D77      -0.053000
     22 CAR         -7.1400    -0.7580    -0.4880 ca         1 D77      -0.175000
     23 CAY         -6.5990    -2.0200    -0.3300 ca         1 D77       0.117100
     24 OAF         -7.3150    -3.1480    -0.3340 oh         1 D77      -0.502100
     25 CBA         -5.2050    -2.1730    -0.1580 ca         1 D77       0.189100
     26 OAH         -4.7560    -3.4130    -0.0240 oh         1 D77      -0.522100
     27 CBG         -4.3870    -1.0380    -0.1470 ca         1 D77      -0.221600
     28 CBE         -2.9420    -1.1980     0.0440 c          1 D77       0.629300
     29 OAE         -2.4760    -2.3390     0.1970 o          1 D77      -0.616100
     30 CBI         -2.0890    -0.0200     0.0530 ca         1 D77      -0.192600
     31 CBC         -0.6990    -0.1420     0.2110 ca         1 D77       0.362000
     32 NAU         -0.0680    -1.3390     0.3240 nu         1 D77      -0.769200
     33 CBL          1.2850    -1.4590    -0.1470 c6         1 D77       0.336600
     34 CAO          1.3990    -1.0960    -1.5710 c1         1 D77      -0.149100
     35 CAM          1.4760    -0.5080    -2.6220 cg         1 D77      -0.145300
     36 CAQ          1.6730     0.3630    -3.7240 ce         1 D77      -0.043700
     37 CAP          2.0570     1.6420    -3.5230 cf         1 D77      -0.057700
     38 CAL          2.2740     2.1150    -2.2050 ch         1 D77      -0.123300
     39 CAN          2.3960     2.3240    -1.0230 c1         1 D77      -0.183100
     40 CBJ          2.4470     2.1200     0.4360 c3         1 D77       0.294400
     41 OAI          2.0230     3.1830     1.2360 oh         1 D77      -0.691000
     42 H1           8.2280    -0.4990     0.5980 h1         1 D77       0.055033
     43 H2           8.2360     1.2660     0.7980 h1         1 D77       0.055033
     44 H3           8.3770     0.2120     2.2220 h1         1 D77       0.055033
     45 H4           4.1600     0.6150     2.1560 h1         1 D77       0.094700
     46 H5           4.5100    -1.8270     3.2350 ho         1 D77       0.473000
     47 H6           5.4190    -0.6390    -0.7930 hc         1 D77       0.058367
     48 H7           3.8790    -0.3690    -1.5870 hc         1 D77       0.058367
     49 H8           4.5830     0.8910    -0.5920 hc         1 D77       0.058367
     50 H9           3.5920    -2.6180     1.1800 ho         1 D77       0.525000
     51 H10          0.1000     3.1640     0.0910 ha         1 D77       0.155000
     52 H11         -3.2990     3.5580    -0.4230 ho         1 D77       0.517000
     53 H12         -6.7700     1.3440    -0.6140 ha         1 D77       0.141000
     54 H13         -8.2100    -0.6470    -0.6220 ha         1 D77       0.122000
     55 H14         -8.2530    -2.9540    -0.4520 ho         1 D77       0.467000
     56 H15         -3.7770    -3.3500     0.0760 ho         1 D77       0.516000
     57 H16         -0.6530    -2.1570     0.2290 hn         1 D77       0.366000
     58 H17          1.5940    -2.4850     0.0330 h1         1 D77       0.106700
     59 H18          1.5160    -0.0010    -4.7310 ha         1 D77       0.201000
     60 H20          2.2080     2.3030    -4.3660 ha         1 D77       0.202000
     61 H22          3.4790     1.8600     0.6950 h1         1 D77       0.056700
     62 H23          2.6560     3.9040     1.1470 ho         1 D77       0.519000
@<TRIPOS>BOND
     1     1     2 1   
     2     1    42 1   
     3     1    43 1   
     4     1    44 1   
     5     2     3 1   
     6     3     4 2   
     7     3     5 1   
     8     5     6 1   
     9     5     7 1   
    10     5    45 1   
    11     6    46 1   
    12     7     8 1   
    13     7     9 1   
    14     7    10 1   
    15     8    47 1   
    16     8    48 1   
    17     8    49 1   
    18     9    50 1   
    19    10    11 1   
    20    10    12 1   
    21    10    33 1   
    22    11    12 1   
    23    12    13 1   
    24    12    40 1   
    25    13    14 ar  
    26    13    31 ar  
    27    14    15 ar  
    28    14    51 1   
    29    15    16 1   
    30    15    17 ar  
    31    16    52 1   
    32    17    18 1   
    33    17    30 ar  
    34    18    19 2   
    35    18    20 1   
    36    20    21 ar  
    37    20    27 ar  
    38    21    22 ar  
    39    21    53 1   
    40    22    23 ar  
    41    22    54 1   
    42    23    24 1   
    43    23    25 ar  
    44    24    55 1   
    45    25    26 1   
    46    25    27 ar  
    47    26    56 1   
    48    27    28 1   
    49    28    29 2   
    50    28    30 1   
    51    30    31 ar  
    52    31    32 1   
    53    32    33 1   
    54    32    57 1   
    55    33    34 1   
    56    33    58 1   
    57    34    35 3   
    58    35    36 1   
    59    36    37 2   
    60    36    59 1   
    61    37    38 1   
    62    37    60 1   
    63    38    39 3   
    64    39    40 1   
    65    40    41 1   
    66    40    61 1   
    67    41    62 1   
@<TRIPOS>SUBSTRUCTURE
     1 D77         1 TEMP              0 ****  ****    0 ROOT
