@<TRIPOS>MOLECULE
D77
   62    67     1     0     0
SMALL
No Charge or Current Charge


@<TRIPOS>ATOM
      1 CAA          7.7050     1.2010     0.8460 c3         1 D77       0.149900
      2 OAV          6.3390     0.8280     1.1090 os         1 D77      -0.432100
      3 CAX          6.1000    -0.3960     1.6830 c          1 D77       0.561100
      4 OAC          6.9830    -1.1450     2.0850 o          1 D77      -0.484000
      5 CBK          4.5800    -0.6090     1.9580 c3         1 D77       0.087300
      6 OAJ          4.3450    -1.4850     3.1120 oh         1 D77      -0.641000
      7 CBM          3.7550    -1.1480     0.7080 c3         1 D77       0.214000
      8 CAB          4.4650    -0.8940    -0.6580 c3         1 D77      -0.091100
      9 OAK          3.8170    -2.5650     0.8940 oh         1 D77      -0.713000
     10 CBO          2.2350    -0.7040     0.7250 cx         1 D77       0.070000
     11 OAW          1.8470    -0.1120     2.0030 op         1 D77      -0.361000
     12 CBN          1.6390     0.7130     0.8340 cx         1 D77       0.159300
     13 CBB          0.1310     0.9450     0.5670 ca         1 D77      -0.073300
     14 CAT         -0.4580     2.2260     0.5810 ca         1 D77      -0.060000
     15 CAZ         -1.8260     2.4030     0.3670 ca         1 D77       0.175100
     16 OAG         -2.3100     3.6780     0.3920 oh         1 D77      -0.544100
     17 CBH         -2.6780     1.2970     0.1380 ca         1 D77      -0.215600
     18 CBD         -4.1590     1.5160    -0.0920 c          1 D77       0.614300
     19 OAD         -4.6350     2.6490    -0.0920 o          1 D77      -0.575100
     20 CBF         -5.0410     0.3160    -0.3210 ca         1 D77      -0.128600
     21 CAS         -6.4260     0.5160    -0.5220 ca         1 D77      -0.053000
     22 CAR         -7.2870    -0.5670    -0.7390 ca         1 D77      -0.175000
     23 CAY         -6.7790    -1.8710    -0.7600 ca         1 D77       0.117100
     24 OAF         -7.6420    -2.9160    -0.9750 oh         1 D77      -0.502100
     25 CBA         -5.3920    -2.0930    -0.5610 ca         1 D77       0.189100
     26 OAH         -4.9120    -3.3760    -0.5860 oh         1 D77      -0.522100
     27 CBG         -4.5090    -0.9980    -0.3390 ca         1 D77      -0.221600
     28 CBE         -3.0240    -1.2200    -0.1260 c          1 D77       0.629300
     29 OAE         -2.5910    -2.3690    -0.1690 o          1 D77      -0.616100
     30 CBI         -2.1210    -0.0170     0.1290 ca         1 D77      -0.192600
     31 CBC         -0.7190    -0.1740     0.3530 ca         1 D77       0.362000
     32 NAU         -0.1260    -1.4360     0.3360 nu         1 D77      -0.769200
     33 CBL          1.2570    -1.6090    -0.1040 c6         1 D77       0.336600
     34 CAO          1.2990    -1.2180    -1.5370 c1         1 D77      -0.149100
     35 CAM          1.3800    -0.6790    -2.6250 cg         1 D77      -0.145300
     36 CAQ          1.5670     0.2280    -3.7280 ce         1 D77      -0.043700
     37 CAP          2.0120     1.5120    -3.5260 cf         1 D77      -0.057700
     38 CAL          2.3130     1.9810    -2.2030 ch         1 D77      -0.123300
     39 CAN          2.4920     2.0830    -1.0070 c1         1 D77      -0.183100
     40 CBJ          2.6190     1.8710     0.4390 c3         1 D77       0.294400
     41 OAI          2.4500     3.0900     1.1690 oh         1 D77      -0.691000
     42 H1           8.1810     0.4860     0.1630 h1         1 D77       0.055033
     43 H2           7.7460     2.1940     0.3810 h1         1 D77       0.055033
     44 H3           8.2880     1.2370     1.7750 h1         1 D77       0.055033
     45 H4           4.2260     0.3980     2.2080 h1         1 D77       0.094700
     46 H5           4.8270    -1.1050     3.8840 ho         1 D77       0.473000
     47 H6           5.4800    -1.3090    -0.6630 hc         1 D77       0.058367
     48 H7           3.9480    -1.3910    -1.4820 hc         1 D77       0.058367
     49 H8           4.5440     0.1700    -0.8970 hc         1 D77       0.058367
     50 H9           3.9670    -2.6280     1.8760 ho         1 D77       0.525000
     51 H10          0.1220     3.1190     0.7610 ha         1 D77       0.155000
     52 H11         -3.2860     3.6110     0.2200 ho         1 D77       0.517000
     53 H12         -6.8460     1.5210    -0.5100 ha         1 D77       0.141000
     54 H13         -8.3480    -0.3840    -0.8900 ha         1 D77       0.122000
     55 H14         -8.5470    -2.5580    -1.0880 ho         1 D77       0.467000
     56 H15         -3.9330    -3.2990    -0.4370 ho         1 D77       0.516000
     57 H16         -0.7780    -2.1960     0.1410 hn         1 D77       0.366000
     58 H17          1.5570    -2.6660    -0.0440 h1         1 D77       0.106700
     59 H18          1.3410    -0.1280    -4.7350 ha         1 D77       0.201000
     60 H20          2.1460     2.1910    -4.3700 ha         1 D77       0.202000
     61 H22          3.6480     1.5390     0.5980 h1         1 D77       0.056700
     62 H23          3.0430     3.7490     0.7410 ho         1 D77       0.519000
@<TRIPOS>BOND
     1     1     2 1   
     2     1    42 1   
     3     1    43 1   
     4     1    44 1   
     5     2     3 1   
     6     3     4 2   
     7     3     5 1   
     8     5     6 1   
     9     5     7 1   
    10     5    45 1   
    11     6    46 1   
    12     7     8 1   
    13     7     9 1   
    14     7    10 1   
    15     8    47 1   
    16     8    48 1   
    17     8    49 1   
    18     9    50 1   
    19    10    11 1   
    20    10    12 1   
    21    10    33 1   
    22    11    12 1   
    23    12    13 1   
    24    12    40 1   
    25    13    14 ar  
    26    13    31 ar  
    27    14    15 ar  
    28    14    51 1   
    29    15    16 1   
    30    15    17 ar  
    31    16    52 1   
    32    17    18 1   
    33    17    30 ar  
    34    18    19 2   
    35    18    20 1   
    36    20    21 ar  
    37    20    27 ar  
    38    21    22 ar  
    39    21    53 1   
    40    22    23 ar  
    41    22    54 1   
    42    23    24 1   
    43    23    25 ar  
    44    24    55 1   
    45    25    26 1   
    46    25    27 ar  
    47    26    56 1   
    48    27    28 1   
    49    28    29 2   
    50    28    30 1   
    51    30    31 ar  
    52    31    32 1   
    53    32    33 1   
    54    32    57 1   
    55    33    34 1   
    56    33    58 1   
    57    34    35 3   
    58    35    36 1   
    59    36    37 2   
    60    36    59 1   
    61    37    38 1   
    62    37    60 1   
    63    38    39 3   
    64    39    40 1   
    65    40    41 1   
    66    40    61 1   
    67    41    62 1   
@<TRIPOS>SUBSTRUCTURE
     1 D77         1 TEMP              0 ****  ****    0 ROOT
