@<TRIPOS>MOLECULE
D78
   82    85     1     0     0
SMALL
No Charge or Current Charge


@<TRIPOS>ATOM
      1 O9          -5.4210    -2.3200     2.3600 o          1 D78      -0.539500
      2 S8          -4.5950    -1.1080     2.3310 sy         1 D78       1.197600
      3 O10         -4.5590    -0.2100     3.4900 o          1 D78      -0.539500
      4 C5          -2.9270    -1.5560     1.8410 ca         1 D78      -0.337500
      5 C4          -1.8240    -0.8430     2.3510 ca         1 D78       0.030500
      6 C3          -0.5250    -1.1970     1.9560 ca         1 D78      -0.198500
      7 C2          -0.3130    -2.2610     1.0680 ca         1 D78       0.184100
      8 O19          0.9880    -2.5780     0.7430 os         1 D78      -0.345100
      9 C18          1.3160    -3.7060    -0.0870 c3         1 D78       0.144900
     10 C7          -1.4190    -2.9740     0.5590 ca         1 D78      -0.198500
     11 C6          -2.7230    -2.6230     0.9460 ca         1 D78       0.030500
     12 N11         -5.1670    -0.1630     1.0220 n3         1 D78      -0.786500
     13 C12         -5.6920    -0.9050    -0.1540 c3         1 D78       0.235800
     14 C13         -6.7280    -0.1210    -1.0080 c3         1 D78      -0.074700
     15 C14         -7.1340    -0.9250    -2.2630 c3         1 D78      -0.090100
     16 C15         -7.9740     0.2890    -0.1850 c3         1 D78      -0.090100
     17 C16         -4.3830     1.0740     0.7190 c3         1 D78       0.188800
     18 C17         -3.1710     0.9480    -0.2730 c3         1 D78       0.121300
     19 O18         -3.5970     1.0460    -1.6530 oh         1 D78      -0.658000
     20 C19         -2.0400     1.9830     0.0060 c3         1 D78       0.081700
     21 C32         -2.4950     3.4690    -0.0580 c3         1 D78      -0.044100
     22 C38         -1.3580     4.4460     0.2210 ca         1 D78      -0.088300
     23 C33         -0.7090     5.1100    -0.8400 ca         1 D78      -0.100500
     24 C34          0.3500     5.9960    -0.5810 ca         1 D78      -0.102500
     25 C35          0.7670     6.2260     0.7410 ca         1 D78      -0.099000
     26 C36          0.1230     5.5690     1.8030 ca         1 D78      -0.102500
     27 C37         -0.9360     4.6810     1.5440 ca         1 D78      -0.100500
     28 N20         -0.9110     1.7570    -0.9070 ns         1 D78      -0.499900
     29 C21          0.4160     1.6850    -0.5270 c          1 D78       0.588100
     30 O22          0.7900     1.7550     0.6360 o          1 D78      -0.554100
     31 C29          1.3080     1.6150    -1.8020 c5         1 D78       0.066300
     32 O28          2.6460     2.1090    -1.5150 os         1 D78      -0.383100
     33 C26          3.4810     1.0620    -1.2590 c          1 D78       0.712100
     34 O27          4.6500     1.1860    -0.9260 o          1 D78      -0.495000
     35 C25          1.5020     0.1210    -2.1910 c5         1 D78       0.070000
     36 N24          2.8470    -0.1240    -1.6530 n          1 D78      -0.255400
     37 C43          3.4300    -1.4430    -1.6180 ca         1 D78      -0.006000
     38 C44          3.2120    -2.3200    -2.7010 ca         1 D78      -0.134000
     39 C45          3.8870    -3.5490    -2.7770 ca         1 D78      -0.093000
     40 C40          4.8220    -3.9030    -1.7940 ca         1 D78      -0.085000
     41 C42          4.4260    -1.7800    -0.6740 ca         1 D78      -0.076000
     42 C41          5.1030    -3.0190    -0.7310 ca         1 D78      -0.171300
     43 C46          6.1470    -3.3710     0.3360 c3         1 D78       0.357300
     44 F1           6.3760    -4.7020     0.4240 f          1 D78      -0.111667
     45 F2           7.3360    -2.7830     0.0720 f          1 D78      -0.111667
     46 F3           5.7690    -2.9630     1.5690 f          1 D78      -0.111667
     47 H4          -1.9660    -0.0170     3.0480 ha         1 D78       0.135000
     48 H3           0.3270    -0.6480     2.3480 ha         1 D78       0.129500
     49 H18          0.9170    -4.6350     0.3400 h1         1 D78       0.046700
     50 H18A         0.9090    -3.5790    -1.0980 h1         1 D78       0.046700
     51 H18B         2.4040    -3.8150    -0.1680 h1         1 D78       0.046700
     52 H7          -1.2890    -3.8020    -0.1310 ha         1 D78       0.129500
     53 H6          -3.5690    -3.1830     0.5480 ha         1 D78       0.135000
     54 H12         -4.8610    -1.2230    -0.7980 h1         1 D78       0.055700
     55 H12A        -6.2020    -1.8240     0.1600 h1         1 D78       0.055700
     56 H13         -6.2600     0.8020    -1.3660 hc         1 D78       0.042700
     57 H14         -7.6260    -1.8650    -1.9840 hc         1 D78       0.039367
     58 H14A        -7.8270    -0.3480    -2.8880 hc         1 D78       0.039367
     59 H14B        -6.2530    -1.1650    -2.8710 hc         1 D78       0.039367
     60 H15         -7.6920     0.9290     0.6600 hc         1 D78       0.039367
     61 H15A        -8.6830     0.8480    -0.8070 hc         1 D78       0.039367
     62 H15B        -8.4870    -0.5960     0.2120 hc         1 D78       0.039367
     63 H16         -5.0620     1.8390     0.3190 h1         1 D78       0.072200
     64 H16A        -4.0070     1.5010     1.6590 h1         1 D78       0.072200
     65 H17         -2.7150    -0.0370    -0.1260 h1         1 D78       0.087700
     66 HO18        -4.0410     1.9130    -1.7690 ho         1 D78       0.443000
     67 H19         -1.6890     1.7980     1.0310 h1         1 D78       0.097700
     68 H32         -2.9270     3.6760    -1.0450 hc         1 D78       0.048200
     69 H32A        -3.2990     3.6390     0.6660 hc         1 D78       0.048200
     70 H33         -1.0220     4.9350    -1.8670 ha         1 D78       0.105500
     71 H34          0.8490     6.5030    -1.4040 ha         1 D78       0.114500
     72 H35          1.5870     6.9120     0.9420 ha         1 D78       0.116000
     73 H36          0.4460     5.7450     2.8270 ha         1 D78       0.114500
     74 H37         -1.4250     4.1720     2.3710 ha         1 D78       0.105500
     75 HN20        -1.1210     1.6770    -1.8960 hn         1 D78       0.318500
     76 H29          0.8520     2.2140    -2.6010 h1         1 D78       0.095700
     77 H25          0.7510    -0.5420    -1.7400 h1         1 D78       0.069700
     78 H25A         1.4800    -0.0090    -3.2800 h1         1 D78       0.069700
     79 H44          2.5170    -2.0580    -3.4950 ha         1 D78       0.121000
     80 H45          3.6940    -4.2240    -3.6080 ha         1 D78       0.123000
     81 H40          5.3400    -4.8570    -1.8750 ha         1 D78       0.134000
     82 H42          4.6540    -1.0930     0.1370 ha         1 D78       0.160000
@<TRIPOS>BOND
     1     1     2 2   
     2     2     3 2   
     3     2     4 1   
     4     2    12 1   
     5     4     5 ar  
     6     4    11 ar  
     7     5     6 ar  
     8     5    47 1   
     9     6     7 ar  
    10     6    48 1   
    11     7     8 1   
    12     7    10 ar  
    13     8     9 1   
    14     9    49 1   
    15     9    50 1   
    16     9    51 1   
    17    10    11 ar  
    18    10    52 1   
    19    11    53 1   
    20    12    13 1   
    21    12    17 1   
    22    13    14 1   
    23    13    54 1   
    24    13    55 1   
    25    14    15 1   
    26    14    16 1   
    27    14    56 1   
    28    15    57 1   
    29    15    58 1   
    30    15    59 1   
    31    16    60 1   
    32    16    61 1   
    33    16    62 1   
    34    17    18 1   
    35    17    63 1   
    36    17    64 1   
    37    18    19 1   
    38    18    20 1   
    39    18    65 1   
    40    19    66 1   
    41    20    21 1   
    42    20    28 1   
    43    20    67 1   
    44    21    22 1   
    45    21    68 1   
    46    21    69 1   
    47    22    23 ar  
    48    22    27 ar  
    49    23    24 ar  
    50    23    70 1   
    51    24    25 ar  
    52    24    71 1   
    53    25    26 ar  
    54    25    72 1   
    55    26    27 ar  
    56    26    73 1   
    57    27    74 1   
    58    28    29 1   
    59    28    75 1   
    60    29    30 2   
    61    29    31 1   
    62    31    32 1   
    63    31    35 1   
    64    31    76 1   
    65    32    33 1   
    66    33    34 2   
    67    33    36 1   
    68    35    36 1   
    69    35    77 1   
    70    35    78 1   
    71    36    37 1   
    72    37    38 ar  
    73    37    41 ar  
    74    38    39 ar  
    75    38    79 1   
    76    39    40 ar  
    77    39    80 1   
    78    40    42 ar  
    79    40    81 1   
    80    41    42 ar  
    81    41    82 1   
    82    42    43 1   
    83    43    44 1   
    84    43    45 1   
    85    43    46 1   
@<TRIPOS>SUBSTRUCTURE
     1 D78         1 TEMP              0 ****  ****    0 ROOT
