@<TRIPOS>MOLECULE
D78
   82    85     1     0     0
SMALL
abcg2


@<TRIPOS>ATOM
      1 O9          -4.9580    -2.7730     1.4920 o          1 D78      -0.539500
      2 S8          -3.8930    -1.7820     1.4440 sy         1 D78       1.197600
      3 O10         -3.2660    -1.3550     2.6870 o          1 D78      -0.539500
      4 C5          -2.6100    -2.4200     0.4080 ca         1 D78      -0.337500
      5 C4          -1.3020    -2.5170     0.8700 ca         1 D78       0.030500
      6 C3          -0.3120    -2.9830     0.0280 ca         1 D78      -0.198500
      7 C2          -0.6180    -3.3530    -1.2850 ca         1 D78       0.184100
      8 O19          0.4050    -3.7830    -2.0340 os         1 D78      -0.345100
      9 C18          0.1660    -4.1420    -3.3840 c3         1 D78       0.144900
     10 C7          -1.9350    -3.2580    -1.7400 ca         1 D78      -0.198500
     11 C6          -2.9230    -2.7940    -0.8910 ca         1 D78       0.030500
     12 N11         -4.4870    -0.4600     0.6820 n3         1 D78      -0.786500
     13 C12         -5.7450    -0.4980    -0.0600 c3         1 D78       0.235800
     14 C13         -6.8730     0.2790     0.6190 c3         1 D78      -0.074700
     15 C14         -8.0930     0.2680    -0.2970 c3         1 D78      -0.090100
     16 C15         -7.2080    -0.2720     1.9980 c3         1 D78      -0.090100
     17 C16         -3.6880     0.7560     0.6420 c3         1 D78       0.188800
     18 C17         -2.6070     0.7660    -0.4380 c3         1 D78       0.121300
     19 O18         -3.1190     0.5730    -1.7340 oh         1 D78      -0.658000
     20 C19         -1.7190     2.0150    -0.3400 c3         1 D78       0.081700
     21 C32         -2.4470     3.3330    -0.6440 c3         1 D78      -0.044100
     22 C38         -1.5240     4.5100    -0.5120 ca         1 D78      -0.088300
     23 C33         -0.8510     5.0210    -1.6190 ca         1 D78      -0.100500
     24 C34          0.0430     6.0740    -1.4820 ca         1 D78      -0.102500
     25 C35          0.2750     6.6350    -0.2330 ca         1 D78      -0.099000
     26 C36         -0.3950     6.1360     0.8770 ca         1 D78      -0.102500
     27 C37         -1.2840     5.0800     0.7360 ca         1 D78      -0.100500
     28 N20         -0.5870     1.8410    -1.2230 ns         1 D78      -0.499900
     29 C21          0.6910     1.9320    -0.8350 c          1 D78       0.588100
     30 O22          1.0720     2.2220     0.2840 o          1 D78      -0.554100
     31 C29          1.6910     1.5320    -1.9170 c5         1 D78       0.066300
     32 O28          2.9360     2.1400    -1.6340 os         1 D78      -0.383100
     33 C26          3.7050     1.2970    -0.9280 c          1 D78       0.712100
     34 O27          4.7420     1.6410    -0.4280 o          1 D78      -0.495000
     35 C25          1.9880     0.0340    -1.8250 c5         1 D78       0.070000
     36 N24          3.1260     0.0590    -0.9280 n          1 D78      -0.255400
     37 C43          3.6590    -1.0950    -0.3480 ca         1 D78      -0.006000
     38 C44          3.3170    -2.3370    -0.8790 ca         1 D78      -0.134000
     39 C45          3.7920    -3.5010    -0.3000 ca         1 D78      -0.093000
     40 C40          4.6220    -3.4540     0.8090 ca         1 D78      -0.085000
     41 C42          4.4800    -1.0380     0.7760 ca         1 D78      -0.076000
     42 C41          4.9570    -2.2150     1.3380 ca         1 D78      -0.171300
     43 C46          5.8720    -2.1120     2.5190 c3         1 D78       0.357300
     44 F1           6.0160    -3.2740     3.1610 f          1 D78      -0.111667
     45 F2           7.1010    -1.7150     2.1540 f          1 D78      -0.111667
     46 F3           5.4360    -1.2190     3.4170 f          1 D78      -0.111667
     47 H4          -1.0460    -2.2190     1.8780 ha         1 D78       0.135000
     48 H3           0.7080    -3.0650     0.3820 ha         1 D78       0.129500
     49 H18         -0.5280    -4.9820    -3.4630 h1         1 D78       0.046700
     50 H18A        -0.2230    -3.3020    -3.9630 h1         1 D78       0.046700
     51 H18B         1.1260    -4.4390    -3.7950 h1         1 D78       0.046700
     52 H7          -2.2070    -3.5390    -2.7470 ha         1 D78       0.129500
     53 H6          -3.9360    -2.7200    -1.2640 ha         1 D78       0.135000
     54 H12         -5.5680    -0.0960    -1.0590 h1         1 D78       0.055700
     55 H12A        -6.0550    -1.5330    -0.2000 h1         1 D78       0.055700
     56 H13         -6.5540     1.3210     0.7340 hc         1 D78       0.042700
     57 H14         -8.4570    -0.7500    -0.4550 hc         1 D78       0.039367
     58 H14A        -8.9110     0.8470     0.1330 hc         1 D78       0.039367
     59 H14B        -7.8640     0.6950    -1.2750 hc         1 D78       0.039367
     60 H15         -6.3480    -0.2410     2.6670 hc         1 D78       0.039367
     61 H15A        -8.0040     0.3150     2.4600 hc         1 D78       0.039367
     62 H15B        -7.5500    -1.3070     1.9370 hc         1 D78       0.039367
     63 H16         -4.3860     1.5830     0.4960 h1         1 D78       0.072200
     64 H16A        -3.2250     0.9340     1.6140 h1         1 D78       0.072200
     65 H17         -1.9390    -0.0820    -0.2720 h1         1 D78       0.087700
     66 HO18        -3.7590     1.2640    -1.9360 ho         1 D78       0.443000
     67 H19         -1.3280     2.0620     0.6780 h1         1 D78       0.097700
     68 H32         -2.8660     3.3040    -1.6540 hc         1 D78       0.048200
     69 H32A        -3.2860     3.4430     0.0460 hc         1 D78       0.048200
     70 H33         -1.0310     4.5960    -2.5990 ha         1 D78       0.105500
     71 H34          0.5590     6.4580    -2.3530 ha         1 D78       0.114500
     72 H35          0.9690     7.4590    -0.1270 ha         1 D78       0.116000
     73 H36         -0.2260     6.5700     1.8540 ha         1 D78       0.114500
     74 H37         -1.8010     4.6940     1.6070 ha         1 D78       0.105500
     75 HN20        -0.7890     1.6190    -2.1860 hn         1 D78       0.318500
     76 H29          1.3660     1.8280    -2.9140 h1         1 D78       0.095700
     77 H25          1.1560    -0.5370    -1.4100 h1         1 D78       0.069700
     78 H25A         2.2460    -0.3860    -2.8010 h1         1 D78       0.069700
     79 H44          2.6720    -2.4130    -1.7430 ha         1 D78       0.121000
     80 H45          3.5130    -4.4560    -0.7230 ha         1 D78       0.123000
     81 H40          4.9860    -4.3730     1.2450 ha         1 D78       0.134000
     82 H42          4.7320    -0.0870     1.2190 ha         1 D78       0.160000
@<TRIPOS>BOND
     1     1     2 2   
     2     2     3 2   
     3     2     4 1   
     4     2    12 1   
     5     4     5 ar  
     6     4    11 ar  
     7     5     6 ar  
     8     5    47 1   
     9     6     7 ar  
    10     6    48 1   
    11     7     8 1   
    12     7    10 ar  
    13     8     9 1   
    14     9    49 1   
    15     9    50 1   
    16     9    51 1   
    17    10    11 ar  
    18    10    52 1   
    19    11    53 1   
    20    12    13 1   
    21    12    17 1   
    22    13    14 1   
    23    13    54 1   
    24    13    55 1   
    25    14    15 1   
    26    14    16 1   
    27    14    56 1   
    28    15    57 1   
    29    15    58 1   
    30    15    59 1   
    31    16    60 1   
    32    16    61 1   
    33    16    62 1   
    34    17    18 1   
    35    17    63 1   
    36    17    64 1   
    37    18    19 1   
    38    18    20 1   
    39    18    65 1   
    40    19    66 1   
    41    20    21 1   
    42    20    28 1   
    43    20    67 1   
    44    21    22 1   
    45    21    68 1   
    46    21    69 1   
    47    22    23 ar  
    48    22    27 ar  
    49    23    24 ar  
    50    23    70 1   
    51    24    25 ar  
    52    24    71 1   
    53    25    26 ar  
    54    25    72 1   
    55    26    27 ar  
    56    26    73 1   
    57    27    74 1   
    58    28    29 1   
    59    28    75 1   
    60    29    30 2   
    61    29    31 1   
    62    31    32 1   
    63    31    35 1   
    64    31    76 1   
    65    32    33 1   
    66    33    34 2   
    67    33    36 1   
    68    35    36 1   
    69    35    77 1   
    70    35    78 1   
    71    36    37 1   
    72    37    38 ar  
    73    37    41 ar  
    74    38    39 ar  
    75    38    79 1   
    76    39    40 ar  
    77    39    80 1   
    78    40    42 ar  
    79    40    81 1   
    80    41    42 ar  
    81    41    82 1   
    82    42    43 1   
    83    43    44 1   
    84    43    45 1   
    85    43    46 1   
@<TRIPOS>SUBSTRUCTURE
     1 D78         1 TEMP              0 ****  ****    0 ROOT
