@<TRIPOS>MOLECULE
D79
   43    47     1     0     0
SMALL
abcg2


@<TRIPOS>ATOM
      1 C26          5.3960     2.9680    -0.5000 ca         1 D79      -0.222000
      2 C27          4.1630     2.3750    -0.3940 ca         1 D79       0.022000
      3 C25          6.5640     2.1810    -0.3520 ca         1 D79       0.385900
      4 C22          4.1540     1.0000    -0.1390 ca         1 D79      -0.205000
      5 C23          5.3840     0.3040    -0.0070 ca         1 D79       0.273000
      6 C18          3.1700     0.0170     0.0430 cc         1 D79       0.430500
      7 C3          -2.4050     0.2270    -0.0110 cc         1 D79       0.537300
      8 C8          -4.3560    -0.0930     0.6820 cd         1 D79       0.418500
      9 C11         -6.6800     0.3030    -0.5890 cc         1 D79      -0.236000
     10 C15          1.8740    -2.2880     0.4720 cd         1 D79      -0.319000
     11 C12         -5.5390     0.5920    -1.2810 cd         1 D79       0.014700
     12 C16          3.2450    -2.3120     0.4770 cc         1 D79       0.203100
     13 C10         -6.6080    -0.1830     0.7410 cc         1 D79       0.415300
     14 C4           1.2020    -1.0710     0.2450 cd         1 D79       0.426300
     15 C14         -5.4660     1.1100    -2.6690 c3         1 D79      -0.056800
     16 C13         -7.8720    -0.4980     1.4700 c3         1 D79      -0.154400
     17 C5          -0.9190     0.2950    -0.0400 c3         1 D79      -0.071700
     18 C6          -0.2970    -1.0660     0.2480 c3         1 D79      -0.128700
     19 N24          6.5890     0.8930    -0.1140 nb         1 D79      -0.649000
     20 N20          5.2220    -0.9980     0.2350 nc         1 D79      -0.269400
     21 N1          -3.0960    -0.1900     1.0660 nc         1 D79      -0.389300
     22 N2          -3.1370     0.5810    -1.0510 nd         1 D79      -0.597100
     23 N17          1.8450     0.0570     0.0340 nc         1 D79      -0.671000
     24 N9          -5.4660    -0.3760     1.3620 nd         1 D79      -0.643000
     25 N19          3.8900    -1.1400     0.2590 na         1 D79       0.134900
     26 N7          -4.3850     0.3780    -0.6070 na         1 D79       0.080900
     27 O21          4.0280    -3.3460     0.6740 oh         1 D79      -0.476100
     28 H1           5.4960     4.0260    -0.6940 ha         1 D79       0.123000
     29 H2           3.2470     2.9400    -0.5030 ha         1 D79       0.128000
     30 H3           7.5280     2.6710    -0.4410 h4         1 D79       0.017100
     31 H4          -7.6400     0.4530    -1.0620 ha         1 D79       0.142000
     32 H5           1.3190    -3.2000     0.6450 ha         1 D79       0.142000
     33 H7          -6.4660     1.2520    -3.0710 hc         1 D79       0.069033
     34 H8          -4.9350     2.0610    -2.6970 hc         1 D79       0.069033
     35 H9          -4.9240     0.4150    -3.3120 hc         1 D79       0.069033
     36 H10         -8.3730    -1.3520     1.0100 hc         1 D79       0.062367
     37 H11         -7.6730    -0.7350     2.5130 hc         1 D79       0.062367
     38 H12         -8.5670     0.3410     1.4230 hc         1 D79       0.062367
     39 H13         -0.6000     0.6660    -1.0130 hc         1 D79       0.078700
     40 H14         -0.5820     1.0200     0.7040 hc         1 D79       0.078700
     41 H15         -0.6450    -1.8000    -0.4850 hc         1 D79       0.071700
     42 H16         -0.6390    -1.4370     1.2190 hc         1 D79       0.071700
     43 H6           3.5060    -4.1470     0.8190 ho         1 D79       0.496000
@<TRIPOS>BOND
     1     1     2 ar  
     2     1     3 ar  
     3     1    28 1   
     4     2     4 ar  
     5     2    29 1   
     6     3    19 ar  
     7     3    30 1   
     8     4     5 ar  
     9     4     6 2   
    10     5    19 ar  
    11     5    20 2   
    12     6    23 1   
    13     6    25 1   
    14     7    17 1   
    15     7    21 1   
    16     7    22 2   
    17     8    21 2   
    18     8    24 1   
    19     8    26 1   
    20     9    11 2   
    21     9    13 1   
    22     9    31 1   
    23    10    12 2   
    24    10    14 1   
    25    10    32 1   
    26    11    15 1   
    27    11    26 1   
    28    12    25 1   
    29    12    27 1   
    30    13    16 1   
    31    13    24 2   
    32    14    18 1   
    33    14    23 2   
    34    15    33 1   
    35    15    34 1   
    36    15    35 1   
    37    16    36 1   
    38    16    37 1   
    39    16    38 1   
    40    17    18 1   
    41    17    39 1   
    42    17    40 1   
    43    18    41 1   
    44    18    42 1   
    45    20    25 1   
    46    22    26 1   
    47    27    43 1   
@<TRIPOS>SUBSTRUCTURE
     1 D79         1 TEMP              0 ****  ****    0 ROOT
