@<TRIPOS>MOLECULE
D79
   43    47     1     0     0
SMALL
No Charge or Current Charge


@<TRIPOS>ATOM
      1 C26          5.5500     2.3690    -1.8870 ca         1 D79      -0.222000
      2 C27          4.3130     1.7680    -1.6050 ca         1 D79       0.022000
      3 C25          6.7030     1.9170    -1.2140 ca         1 D79       0.385900
      4 C22          4.3400     0.7440    -0.6530 ca         1 D79      -0.205000
      5 C23          5.5050     0.3320    -0.0140 ca         1 D79       0.273000
      6 C18          3.3010    -0.0640    -0.1350 cc         1 D79       0.430500
      7 C3          -2.5140     0.0630     0.4960 cc         1 D79       0.537300
      8 C8          -4.4980    -0.5670     0.6080 cd         1 D79       0.418500
      9 C11         -6.6200     0.3970    -0.6010 cc         1 D79      -0.236000
     10 C15          1.7950    -1.8090     1.1530 cd         1 D79      -0.319000
     11 C12         -5.4400     1.0640    -0.9040 cd         1 D79       0.014700
     12 C16          3.1460    -1.8260     1.4650 cc         1 D79       0.203100
     13 C10         -6.6780    -0.7330     0.3040 cc         1 D79       0.415300
     14 C4           1.2410    -0.8950     0.1790 cd         1 D79       0.426300
     15 C14         -5.2980     2.2450    -1.8330 c3         1 D79      -0.056800
     16 C13         -8.0300    -1.3460     0.5280 c3         1 D79      -0.154400
     17 C5          -1.0380     0.0550     0.7900 c3         1 D79      -0.071700
     18 C6          -0.2310    -0.8930    -0.1340 c3         1 D79      -0.128700
     19 N24          6.6860     0.9160    -0.2930 nb         1 D79      -0.649000
     20 N20          5.2840    -0.7130     0.9040 nc         1 D79      -0.269400
     21 N1          -3.3240    -0.8740     1.0930 nc         1 D79      -0.389300
     22 N2          -3.0690     0.9470    -0.3320 nd         1 D79      -0.597100
     23 N17          1.9760    -0.0060    -0.4800 nc         1 D79      -0.671000
     24 N9          -5.6380    -1.2650     0.9450 nd         1 D79      -0.643000
     25 N19          3.9110    -0.8930     0.7660 na         1 D79       0.134900
     26 N7          -4.3520     0.5080    -0.2330 na         1 D79       0.080900
     27 O21          3.7260    -2.6520     2.3610 oh         1 D79      -0.476100
     28 H1           5.6240     3.1730    -2.6140 ha         1 D79       0.123000
     29 H2           3.3920     2.0780    -2.0950 ha         1 D79       0.128000
     30 H3           7.6740     2.3680    -1.4170 h4         1 D79       0.017100
     31 H4          -7.5500     0.7240    -1.0530 ha         1 D79       0.142000
     32 H5           1.1240    -2.5000     1.6510 ha         1 D79       0.142000
     33 H7          -6.2630     2.5350    -2.2630 hc         1 D79       0.069033
     34 H8          -4.8940     3.1150    -1.3030 hc         1 D79       0.069033
     35 H9          -4.6200     2.0120    -2.6630 hc         1 D79       0.069033
     36 H10         -8.4490    -1.7120    -0.4160 hc         1 D79       0.062367
     37 H11         -7.9820    -2.1920     1.2240 hc         1 D79       0.062367
     38 H12         -8.7240    -0.6070     0.9450 hc         1 D79       0.062367
     39 H13         -0.6460     1.0740     0.6910 hc         1 D79       0.078700
     40 H14         -0.8790    -0.2350     1.8350 hc         1 D79       0.078700
     41 H15         -0.3940    -0.6010    -1.1790 hc         1 D79       0.071700
     42 H16         -0.6270    -1.9110    -0.0390 hc         1 D79       0.071700
     43 H6           3.0160    -3.2180     2.7300 ho         1 D79       0.496000
@<TRIPOS>BOND
     1     1     2 ar  
     2     1     3 ar  
     3     1    28 1   
     4     2     4 ar  
     5     2    29 1   
     6     3    19 ar  
     7     3    30 1   
     8     4     5 ar  
     9     4     6 2   
    10     5    19 ar  
    11     5    20 2   
    12     6    23 1   
    13     6    25 1   
    14     7    17 1   
    15     7    21 1   
    16     7    22 2   
    17     8    21 2   
    18     8    24 1   
    19     8    26 1   
    20     9    11 2   
    21     9    13 1   
    22     9    31 1   
    23    10    12 2   
    24    10    14 1   
    25    10    32 1   
    26    11    15 1   
    27    11    26 1   
    28    12    25 1   
    29    12    27 1   
    30    13    16 1   
    31    13    24 2   
    32    14    18 1   
    33    14    23 2   
    34    15    33 1   
    35    15    34 1   
    36    15    35 1   
    37    16    36 1   
    38    16    37 1   
    39    16    38 1   
    40    17    18 1   
    41    17    39 1   
    42    17    40 1   
    43    18    41 1   
    44    18    42 1   
    45    20    25 1   
    46    22    26 1   
    47    27    43 1   
@<TRIPOS>SUBSTRUCTURE
     1 D79         1 TEMP              0 ****  ****    0 ROOT
