@<TRIPOS>MOLECULE
D7A
   45    46     1     0     0
SMALL
abcg2


@<TRIPOS>ATOM
      1 CAB          5.8140     3.0770     0.5660 c3         1 D7A       0.145900
      2 OAR          6.4510     1.8310     0.3710 os         1 D7A      -0.320100
      3 CAX          5.7020     0.7950    -0.0510 ca         1 D7A       0.115100
      4 CAM          4.3460     0.8550    -0.3190 ca         1 D7A      -0.167000
      5 CAW          6.3910    -0.4240    -0.2230 ca         1 D7A       0.115100
      6 OAQ          7.7080    -0.3950     0.0620 os         1 D7A      -0.320100
      7 CAA          8.4440    -1.5900    -0.0890 c3         1 D7A       0.144900
      8 CAL          5.6950    -1.5360    -0.6640 ca         1 D7A      -0.169000
      9 CAG          4.3270    -1.4580    -0.9300 ca         1 D7A      -0.100000
     10 CAT          3.6410    -0.2700    -0.7610 ca         1 D7A      -0.085300
     11 CAO          2.1600    -0.1780    -0.9980 c3         1 D7A      -0.042100
     12 CAN          1.3840    -0.3610     0.3030 c3         1 D7A       0.102000
     13 NAP         -0.0390    -0.2410     0.0590 ns         1 D7A      -0.501900
     14 CAS         -0.9530    -0.5030     1.0030 c          1 D7A       0.602700
     15 OAD         -0.6620    -0.8780     2.1300 o          1 D7A      -0.591100
     16 CAU         -2.3840    -0.3120     0.6000 ca         1 D7A      -0.096600
     17 CAI         -2.8180    -0.5030    -0.7100 ca         1 D7A      -0.097500
     18 CAK         -4.1520    -0.3410    -1.0380 ca         1 D7A      -0.019500
     19 CAH         -3.3040     0.0330     1.5840 ca         1 D7A      -0.097500
     20 CAJ         -4.6400     0.2170     1.2640 ca         1 D7A      -0.019500
     21 CAV         -5.0510     0.0240    -0.0450 ca         1 D7A      -0.251500
     22 SAY         -6.7550     0.2520    -0.4800 sy         1 D7A       1.127600
     23 OAE         -7.3990     0.9650     0.6140 o          1 D7A      -0.542500
     24 OAF         -6.8330     0.8110    -1.8210 o          1 D7A      -0.542500
     25 NAC         -7.2610    -1.3120    -0.6110 n8         1 D7A      -1.008100
     26 H1           5.3850     3.4660    -0.3610 h1         1 D7A       0.039700
     27 H2           5.0240     3.0190     1.3190 h1         1 D7A       0.039700
     28 H3           6.5810     3.7650     0.9130 h1         1 D7A       0.039700
     29 H4           3.8050     1.7850    -0.1930 ha         1 D7A       0.117000
     30 H5           8.0660    -2.3890     0.5550 h1         1 D7A       0.039700
     31 H6           8.4410    -1.9450    -1.1240 h1         1 D7A       0.039700
     32 H7           9.4670    -1.3630     0.2000 h1         1 D7A       0.039700
     33 H8           6.2020    -2.4810    -0.8110 ha         1 D7A       0.120000
     34 H9           3.8080    -2.3430    -1.2760 ha         1 D7A       0.114000
     35 H10          1.9130     0.7950    -1.4330 hc         1 D7A       0.049200
     36 H11          1.8470    -0.9390    -1.7160 hc         1 D7A       0.049200
     37 H12          1.5980    -1.3460     0.7220 h1         1 D7A       0.058700
     38 H13          1.7090     0.3800     1.0400 h1         1 D7A       0.058700
     39 H14         -0.3280     0.2280    -0.7840 hn         1 D7A       0.315500
     40 H15         -2.1270    -0.8020    -1.4880 ha         1 D7A       0.130500
     41 H16         -4.4780    -0.5030    -2.0570 ha         1 D7A       0.140000
     42 H17         -2.9790     0.1730     2.6060 ha         1 D7A       0.130500
     43 H18         -5.3430     0.5050     2.0340 ha         1 D7A       0.140000
     44 H19         -7.4270    -1.7520     0.2890 hn         1 D7A       0.476500
     45 H20         -8.0830    -1.3930    -1.2020 hn         1 D7A       0.476500
@<TRIPOS>BOND
     1     1     2 1   
     2     1    26 1   
     3     1    27 1   
     4     1    28 1   
     5     2     3 1   
     6     3     4 ar  
     7     3     5 ar  
     8     4    10 ar  
     9     4    29 1   
    10     5     6 1   
    11     5     8 ar  
    12     6     7 1   
    13     7    30 1   
    14     7    31 1   
    15     7    32 1   
    16     8     9 ar  
    17     8    33 1   
    18     9    10 ar  
    19     9    34 1   
    20    10    11 1   
    21    11    12 1   
    22    11    35 1   
    23    11    36 1   
    24    12    13 1   
    25    12    37 1   
    26    12    38 1   
    27    13    14 1   
    28    13    39 1   
    29    14    15 2   
    30    14    16 1   
    31    16    17 ar  
    32    16    19 ar  
    33    17    18 ar  
    34    17    40 1   
    35    18    21 ar  
    36    18    41 1   
    37    19    20 ar  
    38    19    42 1   
    39    20    21 ar  
    40    20    43 1   
    41    21    22 1   
    42    22    23 2   
    43    22    24 2   
    44    22    25 1   
    45    25    44 1   
    46    25    45 1   
@<TRIPOS>SUBSTRUCTURE
     1 D7A         1 TEMP              0 ****  ****    0 ROOT
