@<TRIPOS>MOLECULE
D7A
   45    46     1     0     0
SMALL
No Charge or Current Charge


@<TRIPOS>ATOM
      1 CAB          5.9710     3.2160     0.3530 c3         1 D7A       0.145900
      2 OAR          6.5620     1.9130     0.2100 os         1 D7A      -0.320100
      3 CAX          5.8210     0.7920    -0.1290 ca         1 D7A       0.115100
      4 CAM          4.4270     0.8620    -0.3580 ca         1 D7A      -0.167000
      5 CAW          6.4890    -0.4510    -0.2450 ca         1 D7A       0.115100
      6 OAQ          7.8550    -0.4960    -0.0170 os         1 D7A      -0.320100
      7 CAA          8.6150    -1.7140    -0.1120 c3         1 D7A       0.144900
      8 CAL          5.7530    -1.6090    -0.5890 ca         1 D7A      -0.169000
      9 CAG          4.3690    -1.5260    -0.8130 ca         1 D7A      -0.100000
     10 CAT          3.7010    -0.2940    -0.7010 ca         1 D7A      -0.085300
     11 CAO          2.2000    -0.2110    -0.9390 c3         1 D7A      -0.042100
     12 CAN          1.4030    -0.3140     0.3750 c3         1 D7A       0.102000
     13 NAP         -0.0420    -0.2330     0.1480 ns         1 D7A      -0.501900
     14 CAS         -0.9890    -0.2970     1.1480 c          1 D7A       0.602700
     15 OAD         -0.6570    -0.4320     2.3190 o          1 D7A      -0.591100
     16 CAU         -2.4430    -0.1950     0.7240 ca         1 D7A      -0.096600
     17 CAI         -2.8280    -0.0410    -0.6310 ca         1 D7A      -0.097500
     18 CAK         -4.1860     0.0510    -0.9880 ca         1 D7A      -0.019500
     19 CAH         -3.4590    -0.2550     1.7060 ca         1 D7A      -0.097500
     20 CAJ         -4.8160    -0.1630     1.3520 ca         1 D7A      -0.019500
     21 CAV         -5.1860    -0.0080     0.0020 ca         1 D7A      -0.251500
     22 SAY         -6.9210     0.1090    -0.4540 sy         1 D7A       1.127600
     23 OAE         -7.7390     0.4990     0.6920 o          1 D7A      -0.542500
     24 OAF         -7.0760     0.7270    -1.7690 o          1 D7A      -0.542500
     25 NAC         -7.3430    -1.4450    -0.7120 n8         1 D7A      -1.008100
     26 H1           5.5070     3.5400    -0.5870 h1         1 D7A       0.039700
     27 H2           5.2070     3.2140     1.1420 h1         1 D7A       0.039700
     28 H3           6.7370     3.9530     0.6250 h1         1 D7A       0.039700
     29 H4           3.8930     1.8040    -0.2720 ha         1 D7A       0.117000
     30 H5           8.2500    -2.4590     0.6070 h1         1 D7A       0.039700
     31 H6           8.5500    -2.1360    -1.1230 h1         1 D7A       0.039700
     32 H7           9.6720    -1.5200     0.1080 h1         1 D7A       0.039700
     33 H8           6.2350    -2.5770    -0.6850 ha         1 D7A       0.120000
     34 H9           3.8140    -2.4250    -1.0740 ha         1 D7A       0.114000
     35 H10          1.9500     0.7340    -1.4370 hc         1 D7A       0.049200
     36 H11          1.8780    -1.0110    -1.6170 hc         1 D7A       0.049200
     37 H12          1.6330    -1.2690     0.8660 h1         1 D7A       0.058700
     38 H13          1.7040     0.4990     1.0490 h1         1 D7A       0.058700
     39 H14         -0.3770    -0.1210    -0.7990 hn         1 D7A       0.315500
     40 H15         -2.0890     0.0090    -1.4260 ha         1 D7A       0.130500
     41 H16         -4.4550     0.1670    -2.0370 ha         1 D7A       0.140000
     42 H17         -3.1990    -0.3740     2.7560 ha         1 D7A       0.130500
     43 H18         -5.5760    -0.2150     2.1310 ha         1 D7A       0.140000
     44 H19         -8.1640    -1.5120    -0.1150 hn         1 D7A       0.476500
     45 H20         -7.7590    -1.3690    -1.6380 hn         1 D7A       0.476500
@<TRIPOS>BOND
     1     1     2 1   
     2     1    26 1   
     3     1    27 1   
     4     1    28 1   
     5     2     3 1   
     6     3     4 ar  
     7     3     5 ar  
     8     4    10 ar  
     9     4    29 1   
    10     5     6 1   
    11     5     8 ar  
    12     6     7 1   
    13     7    30 1   
    14     7    31 1   
    15     7    32 1   
    16     8     9 ar  
    17     8    33 1   
    18     9    10 ar  
    19     9    34 1   
    20    10    11 1   
    21    11    12 1   
    22    11    35 1   
    23    11    36 1   
    24    12    13 1   
    25    12    37 1   
    26    12    38 1   
    27    13    14 1   
    28    13    39 1   
    29    14    15 2   
    30    14    16 1   
    31    16    17 ar  
    32    16    19 ar  
    33    17    18 ar  
    34    17    40 1   
    35    18    21 ar  
    36    18    41 1   
    37    19    20 ar  
    38    19    42 1   
    39    20    21 ar  
    40    20    43 1   
    41    21    22 1   
    42    22    23 2   
    43    22    24 2   
    44    22    25 1   
    45    25    44 1   
    46    25    45 1   
@<TRIPOS>SUBSTRUCTURE
     1 D7A         1 TEMP              0 ****  ****    0 ROOT
