@<TRIPOS>MOLECULE
D7B
   62    66     1     0     0
SMALL
abcg2


@<TRIPOS>ATOM
      1 C10         42.3300    16.6240     9.3450 c6         1 D7B       0.222800
      2 C17         40.5330    18.0820    11.9510 ca         1 D7B      -0.085300
      3 C20         38.6100    16.7320    12.5490 ca         1 D7B      -0.100000
      4 C22         38.3800    17.5320    13.6610 ca         1 D7B      -0.110000
      5 C24         39.2270    18.6050    13.9150 ca         1 D7B      -0.094000
      6 C26         40.3010    18.8940    13.0730 ca         1 D7B      -0.086300
      7 C01         39.1640    15.2750     6.4280 c3         1 D7B      -0.170100
      8 C05         40.6460    15.3680     6.7030 c          1 D7B       0.607100
      9 O06         41.3800    14.4090     6.4540 o          1 D7B      -0.610100
     10 N07         41.1450    16.5140     7.2560 n          1 D7B      -0.222400
     11 C08         42.5010    16.5060     7.8340 c6         1 D7B       0.119700
     12 N13         41.5530    17.8050     9.6860 nh         1 D7B      -0.842400
     13 C14         41.6960    18.3650    11.0140 c3         1 D7B       0.279100
     14 C18         39.6790    17.0110    11.7040 ca         1 D7B      -0.100000
     15 C27         41.1800    20.0730    13.3810 c3         1 D7B       0.204900
     16 O30         42.4930    19.6050    13.7310 oh         1 D7B      -0.664000
     17 C32         40.6160    18.3030     8.8100 ca         1 D7B       0.324000
     18 C33         39.8610    19.4480     9.1130 ca         1 D7B      -0.166000
     19 C35         38.9520    20.0060     8.2120 ca         1 D7B      -0.013800
     20 C36         38.8320    19.4220     6.9430 ca         1 D7B      -0.142000
     21 C38         39.5610    18.2870     6.6290 ca         1 D7B      -0.089000
     22 C40         40.4030    17.6850     7.5560 ca         1 D7B      -0.112000
     23 C41         38.1450    21.1910     8.5880 ce         1 D7B      -0.059400
     24 C42         36.9320    21.4050     8.0620 c2         1 D7B      -0.244200
     25 C44         36.1040    22.6290     8.3380 c6         1 D7B       0.178000
     26 N47         36.8140    23.7050     9.0320 n7         1 D7B      -0.839400
     27 C49         37.6660    23.1600    10.0920 c6         1 D7B       0.145800
     28 C52         38.7210    22.1780     9.5800 c6         1 D7B      -0.075200
     29 C55         43.3690    17.5850     7.2390 cx         1 D7B      -0.136700
     30 C57         44.8530    17.3640     7.1820 cx         1 D7B      -0.124400
     31 C60         44.0360    17.3380     5.9160 cx         1 D7B      -0.124400
     32 H1          41.8550    15.7090     9.7180 h1         1 D7B       0.050700
     33 H2          43.3110    16.7060     9.8160 h1         1 D7B       0.050700
     34 H3          37.9590    15.8940    12.3340 ha         1 D7B       0.115000
     35 H4          37.5480    17.3270    14.3230 ha         1 D7B       0.116000
     36 H5          39.0540    19.2370    14.7780 ha         1 D7B       0.112000
     37 H6          38.8870    14.2260     6.5050 hc         1 D7B       0.065033
     38 H7          38.5680    15.8720     7.1140 hc         1 D7B       0.065033
     39 H8          38.9490    15.6090     5.4120 hc         1 D7B       0.065033
     40 H9          42.9310    15.5340     7.6090 h1         1 D7B       0.097700
     41 H10         42.6110    17.9570    11.4430 h1         1 D7B       0.061200
     42 H11         41.8570    19.4430    10.9430 h1         1 D7B       0.061200
     43 H12         39.8410    16.3950    10.8300 ha         1 D7B       0.119000
     44 H13         41.2440    20.7370    12.5130 h1         1 D7B       0.028700
     45 H14         40.7480    20.6420    14.2080 h1         1 D7B       0.028700
     46 H15         43.0880    20.3650    13.7430 ho         1 D7B       0.440000
     47 H16         39.9660    19.8920    10.0880 ha         1 D7B       0.118000
     48 H17         38.1920    19.8690     6.1960 ha         1 D7B       0.116000
     49 H18         39.4840    17.8580     5.6400 ha         1 D7B       0.117000
     50 H19         36.4910    20.6700     7.3970 ha         1 D7B       0.180000
     51 H20         35.7140    23.0250     7.3960 h1         1 D7B       0.059700
     52 H21         35.2240    22.3460     8.9310 h1         1 D7B       0.059700
     53 H22         37.4050    24.1870     8.3610 hn         1 D7B       0.403000
     54 H24         38.1460    23.9850    10.6220 h1         1 D7B       0.055200
     55 H25         37.0140    22.6500    10.8080 h1         1 D7B       0.055200
     56 H26         39.1540    21.6520    10.4340 hc         1 D7B       0.051200
     57 H27         39.5490    22.7210     9.1100 hc         1 D7B       0.051200
     58 H28         43.0410    18.5990     7.4310 hc         1 D7B       0.090700
     59 H29         45.2320    16.4200     7.5540 hc         1 D7B       0.074450
     60 H30         45.5010    18.2120     7.3590 hc         1 D7B       0.074450
     61 H31         43.8680    16.3780     5.4450 hc         1 D7B       0.074450
     62 H32         44.1290    18.1690     5.2300 hc         1 D7B       0.074450
@<TRIPOS>BOND
     1     1    11 1   
     2     1    12 1   
     3     1    32 1   
     4     1    33 1   
     5     2     6 ar  
     6     2    13 1   
     7     2    14 ar  
     8     3     4 ar  
     9     3    14 ar  
    10     3    34 1   
    11     4     5 ar  
    12     4    35 1   
    13     5     6 ar  
    14     5    36 1   
    15     6    15 1   
    16     7     8 1   
    17     7    37 1   
    18     7    38 1   
    19     7    39 1   
    20     8     9 2   
    21     8    10 1   
    22    10    11 1   
    23    10    22 1   
    24    11    29 1   
    25    11    40 1   
    26    12    13 1   
    27    12    17 1   
    28    13    41 1   
    29    13    42 1   
    30    14    43 1   
    31    15    16 1   
    32    15    44 1   
    33    15    45 1   
    34    16    46 1   
    35    17    18 ar  
    36    17    22 ar  
    37    18    19 ar  
    38    18    47 1   
    39    19    20 ar  
    40    19    23 1   
    41    20    21 ar  
    42    20    48 1   
    43    21    22 ar  
    44    21    49 1   
    45    23    24 2   
    46    23    28 1   
    47    24    25 1   
    48    24    50 1   
    49    25    26 1   
    50    25    51 1   
    51    25    52 1   
    52    26    27 1   
    53    26    53 1   
    54    27    28 1   
    55    27    54 1   
    56    27    55 1   
    57    28    56 1   
    58    28    57 1   
    59    29    30 1   
    60    29    31 1   
    61    29    58 1   
    62    30    31 1   
    63    30    59 1   
    64    30    60 1   
    65    31    61 1   
    66    31    62 1   
@<TRIPOS>SUBSTRUCTURE
     1 D7B         1 TEMP              0 ****  ****    0 ROOT
