@<TRIPOS>MOLECULE
D7B
   62    66     1     0     0
SMALL
No Charge or Current Charge


@<TRIPOS>ATOM
      1 C10         42.7350    16.8220     9.3140 c6         1 D7B       0.222800
      2 C17         40.4420    17.9090    11.9020 ca         1 D7B      -0.085300
      3 C20         38.5070    16.4250    12.1480 ca         1 D7B      -0.100000
      4 C22         37.9530    17.2930    13.0980 ca         1 D7B      -0.110000
      5 C24         38.6380    18.4640    13.4590 ca         1 D7B      -0.094000
      6 C26         39.8810    18.7850    12.8730 ca         1 D7B      -0.086300
      7 C01         39.1240    15.2130     6.8980 c3         1 D7B      -0.170100
      8 C05         40.6510    15.3530     6.8850 c          1 D7B       0.607100
      9 O06         41.3300    14.3940     6.5340 o          1 D7B      -0.610100
     10 N07         41.2540    16.5530     7.3550 n          1 D7B      -0.222400
     11 C08         42.6740    16.5460     7.7840 c6         1 D7B       0.119700
     12 N13         41.8270    17.9280     9.7630 nh         1 D7B      -0.842400
     13 C14         41.7930    18.1960    11.2250 c3         1 D7B       0.279100
     14 C18         39.7430    16.7290    11.5590 ca         1 D7B      -0.100000
     15 C27         40.5780    20.0750    13.3110 c3         1 D7B       0.204900
     16 O30         41.7540    19.7790    14.0750 oh         1 D7B      -0.664000
     17 C32         40.8230    18.4370     8.8810 ca         1 D7B       0.324000
     18 C33         40.0880    19.5920     9.2180 ca         1 D7B      -0.166000
     19 C35         39.0750    20.0850     8.3780 ca         1 D7B      -0.013800
     20 C36         38.7940    19.4080     7.1800 ca         1 D7B      -0.142000
     21 C38         39.5250    18.2680     6.8180 ca         1 D7B      -0.089000
     22 C40         40.5710    17.7960     7.6380 ca         1 D7B      -0.112000
     23 C41         38.2900    21.2990     8.7530 ce         1 D7B      -0.059400
     24 C42         36.9380    21.3260     8.6690 c2         1 D7B      -0.244200
     25 C44         36.0870    22.5300     9.0390 c6         1 D7B       0.178000
     26 N47         36.8990    23.7650     8.9970 n7         1 D7B      -0.839400
     27 C49         38.1360    23.6350     9.7980 c6         1 D7B       0.145800
     28 C52         39.0630    22.5540     9.1920 c6         1 D7B      -0.075200
     29 C55         43.5300    17.5490     6.9820 cx         1 D7B      -0.136700
     30 C57         44.9940    17.2770     6.7280 cx         1 D7B      -0.124400
     31 C60         44.0010    17.2010     5.5900 cx         1 D7B      -0.124400
     32 H1          42.4530    15.8950     9.8340 h1         1 D7B       0.050700
     33 H2          43.7760    17.0420     9.5950 h1         1 D7B       0.050700
     34 H3          37.9800    15.5150    11.8690 ha         1 D7B       0.115000
     35 H4          36.9950    17.0590    13.5570 ha         1 D7B       0.116000
     36 H5          38.1980    19.1260    14.2010 ha         1 D7B       0.112000
     37 H6          38.8180    14.1630     6.9560 hc         1 D7B       0.065033
     38 H7          38.6820    15.8140     7.7000 hc         1 D7B       0.065033
     39 H8          38.7260    15.6390     5.9720 hc         1 D7B       0.065033
     40 H9          43.1150    15.5530     7.6240 h1         1 D7B       0.097700
     41 H10         42.5490    17.5820    11.7340 h1         1 D7B       0.061200
     42 H11         42.0960    19.2370    11.3900 h1         1 D7B       0.061200
     43 H12         40.1600    16.0450    10.8240 ha         1 D7B       0.119000
     44 H13         40.8320    20.6750    12.4270 h1         1 D7B       0.028700
     45 H14         39.8840    20.6770    13.9130 h1         1 D7B       0.028700
     46 H15         42.1190    20.6400    14.3760 ho         1 D7B       0.440000
     47 H16         40.2900    20.1030    10.1500 ha         1 D7B       0.118000
     48 H17         38.0120    19.7740     6.5190 ha         1 D7B       0.116000
     49 H18         39.3050    17.7840     5.8710 ha         1 D7B       0.117000
     50 H19         36.3850    20.4440     8.3470 ha         1 D7B       0.180000
     51 H20         35.2360    22.6190     8.3450 h1         1 D7B       0.059700
     52 H21         35.6760    22.3900    10.0510 h1         1 D7B       0.059700
     53 H22         37.1750    23.9270     8.0210 hn         1 D7B       0.403000
     54 H24         38.6680    24.5980     9.8330 h1         1 D7B       0.055200
     55 H25         37.8770    23.3620    10.8330 h1         1 D7B       0.055200
     56 H26         39.8430    22.3060     9.9220 hc         1 D7B       0.051200
     57 H27         39.5820    22.9700     8.3180 hc         1 D7B       0.051200
     58 H28         43.2490    18.5860     7.1560 hc         1 D7B       0.090700
     59 H29         45.4160    16.3440     7.0950 hc         1 D7B       0.074450
     60 H30         45.6770    18.1230     6.7500 hc         1 D7B       0.074450
     61 H31         43.7540    16.2170     5.1970 hc         1 D7B       0.074450
     62 H32         44.0170    17.9950     4.8470 hc         1 D7B       0.074450
@<TRIPOS>BOND
     1     1    11 1   
     2     1    12 1   
     3     1    32 1   
     4     1    33 1   
     5     2     6 ar  
     6     2    13 1   
     7     2    14 ar  
     8     3     4 ar  
     9     3    14 ar  
    10     3    34 1   
    11     4     5 ar  
    12     4    35 1   
    13     5     6 ar  
    14     5    36 1   
    15     6    15 1   
    16     7     8 1   
    17     7    37 1   
    18     7    38 1   
    19     7    39 1   
    20     8     9 2   
    21     8    10 1   
    22    10    11 1   
    23    10    22 1   
    24    11    29 1   
    25    11    40 1   
    26    12    13 1   
    27    12    17 1   
    28    13    41 1   
    29    13    42 1   
    30    14    43 1   
    31    15    16 1   
    32    15    44 1   
    33    15    45 1   
    34    16    46 1   
    35    17    18 ar  
    36    17    22 ar  
    37    18    19 ar  
    38    18    47 1   
    39    19    20 ar  
    40    19    23 1   
    41    20    21 ar  
    42    20    48 1   
    43    21    22 ar  
    44    21    49 1   
    45    23    24 2   
    46    23    28 1   
    47    24    25 1   
    48    24    50 1   
    49    25    26 1   
    50    25    51 1   
    51    25    52 1   
    52    26    27 1   
    53    26    53 1   
    54    27    28 1   
    55    27    54 1   
    56    27    55 1   
    57    28    56 1   
    58    28    57 1   
    59    29    30 1   
    60    29    31 1   
    61    29    58 1   
    62    30    31 1   
    63    30    59 1   
    64    30    60 1   
    65    31    61 1   
    66    31    62 1   
@<TRIPOS>SUBSTRUCTURE
     1 D7B         1 TEMP              0 ****  ****    0 ROOT
