@<TRIPOS>MOLECULE
D7C
   46    50     1     0     0
SMALL
bcc


@<TRIPOS>ATOM
      1 C10          5.9250     2.5030    -0.4210 ca         1 D7C      -0.147000
      2 C11          6.6540     1.3830    -0.0070 ca         1 D7C      -0.118000
      3 C9           4.5470     2.4570    -0.5710 ca         1 D7C      -0.076000
      4 C12          6.0290     0.1740     0.2670 ca         1 D7C      -0.128000
      5 C8           3.8980     1.2580    -0.2970 ca         1 D7C       0.086400
      6 C7           4.6530     0.1380     0.1150 ca         1 D7C      -0.055200
      7 C16         -1.8180     0.3620    -0.0180 cc         1 D7C       0.552300
      8 C19         -3.7430     0.4460     0.7910 cd         1 D7C       0.418500
      9 C5           2.5190    -0.2980    -0.0090 cc         1 D7C       0.486400
     10 C22         -6.1020     0.4270    -0.4770 cc         1 D7C      -0.317300
     11 C21         -4.9830     0.3590    -1.2550 cd         1 D7C       0.065400
     12 C23         -5.9920     0.5060     0.9340 cc         1 D7C       0.477600
     13 C1           3.6160    -2.1920     0.7910 c5         1 D7C       0.042300
     14 C2           2.1690    -2.5610     0.3870 c5         1 D7C       0.102700
     15 C25         -4.9500     0.2770    -2.7350 c3         1 D7C      -0.056800
     16 C26         -7.2350     0.5790     1.7580 c3         1 D7C      -0.153400
     17 C27          2.1240    -3.4060    -0.8740 c3         1 D7C      -0.111100
     18 C15         -0.3360     0.3240    -0.1090 c3         1 D7C      -0.157700
     19 N6           2.5490     0.9480    -0.3660 nd         1 D7C      -0.605100
     20 N18         -2.4720     0.4440     1.1520 nc         1 D7C      -0.370300
     21 N17         -2.5750     0.3190    -1.0960 nd         1 D7C      -0.590100
     22 N24         -4.8330     0.5150     1.5540 nd         1 D7C      -0.639000
     23 N4           3.7170    -0.8500     0.2720 na         1 D7C      -0.183300
     24 N20         -3.8080     0.3690    -0.5780 na         1 D7C       0.033200
     25 N3           1.5340    -1.2400     0.1710 n          1 D7C      -0.403300
     26 O14         -0.5590    -2.0220     0.3260 o          1 D7C      -0.559100
     27 H1           6.4500     3.4260    -0.6300 ha         1 D7C       0.132000
     28 H2           7.7280     1.4590     0.0990 ha         1 D7C       0.131000
     29 H3           3.9900     3.3280    -0.8920 ha         1 D7C       0.147000
     30 H4           6.5930    -0.6940     0.5840 ha         1 D7C       0.136000
     31 H5          -7.0760     0.4220    -0.9450 ha         1 D7C       0.158000
     32 H6           3.7600    -2.2010     1.8720 h1         1 D7C       0.067700
     33 H7           4.3430    -2.8610     0.3340 h1         1 D7C       0.067700
     34 H8           1.6630    -3.0690     1.2050 h1         1 D7C       0.092700
     35 H9          -4.4440    -0.6320    -3.0600 hc         1 D7C       0.068700
     36 H10         -5.9610     0.2790    -3.1330 hc         1 D7C       0.068700
     37 H11         -4.4040     1.1230    -3.1560 hc         1 D7C       0.068700
     38 H12         -7.8300    -0.3270     1.6340 hc         1 D7C       0.061033
     39 H13         -6.9970     0.6980     2.8120 hc         1 D7C       0.061033
     40 H14         -7.8590     1.4150     1.4390 hc         1 D7C       0.061033
     41 H15          2.6110    -4.3640    -0.6890 hc         1 D7C       0.053700
     42 H16          1.0990    -3.6050    -1.1820 hc         1 D7C       0.053700
     43 H17          2.6450    -2.9140    -1.6960 hc         1 D7C       0.053700
     44 H18         -0.0070     0.6560    -1.0960 hc         1 D7C       0.106700
     45 H19          0.1010     1.0190     0.6100 hc         1 D7C       0.106700
     46 C13          0.1790    -1.0760     0.1470 c          1 D7C       0.707100
@<TRIPOS>BOND
     1     1     2 ar  
     2     1     3 ar  
     3     1    27 1   
     4     2     4 ar  
     5     2    28 1   
     6     3     5 ar  
     7     3    29 1   
     8     4     6 ar  
     9     4    30 1   
    10     5     6 ar  
    11     5    19 1   
    12     6    23 1   
    13     7    18 1   
    14     7    20 1   
    15     7    21 2   
    16     8    20 2   
    17     8    22 1   
    18     8    24 1   
    19     9    19 2   
    20     9    23 1   
    21     9    25 1   
    22    10    11 2   
    23    10    12 1   
    24    10    31 1   
    25    11    15 1   
    26    11    24 1   
    27    12    16 1   
    28    12    22 2   
    29    13    14 1   
    30    13    23 1   
    31    13    32 1   
    32    13    33 1   
    33    14    17 1   
    34    14    25 1   
    35    14    34 1   
    36    15    35 1   
    37    15    36 1   
    38    15    37 1   
    39    16    38 1   
    40    16    39 1   
    41    16    40 1   
    42    17    41 1   
    43    17    42 1   
    44    17    43 1   
    45    18    44 1   
    46    18    45 1   
    47    18    46 1   
    48    21    24 1   
    49    25    46 1   
    50    26    46 2   
@<TRIPOS>SUBSTRUCTURE
     1 D7C         1 TEMP              0 ****  ****    0 ROOT
