@<TRIPOS>MOLECULE
D7C
   46    50     1     0     0
SMALL
No Charge or Current Charge


@<TRIPOS>ATOM
      1 C10          5.9400     2.3430    -0.6090 ca         1 D7C      -0.129000
      2 C11          6.3460     1.1210    -1.1990 ca         1 D7C      -0.100000
      3 C9           4.6760     2.4570     0.0150 ca         1 D7C      -0.058000
      4 C12          5.4920    -0.0020    -1.1710 ca         1 D7C      -0.110000
      5 C8           3.8380     1.3330     0.0290 ca         1 D7C       0.086400
      6 C7           4.2500     0.1550    -0.5450 ca         1 D7C      -0.055200
      7 C16         -1.6750     0.5470     1.1850 cc         1 D7C       0.552300
      8 C19         -3.7550     0.5440     1.0470 cd         1 D7C       0.418500
      9 C5           2.2480    -0.0580     0.3000 cc         1 D7C       0.486400
     10 C22         -5.2790     0.1420    -1.0530 cc         1 D7C      -0.234000
     11 C21         -3.9180     0.0780    -1.3170 cd         1 D7C       0.014700
     12 C23         -5.8150     0.4090     0.2660 cc         1 D7C       0.412300
     13 C1           3.1110    -2.1490    -0.2940 c5         1 D7C       0.071600
     14 C2           1.7330    -2.3780     0.4600 c5         1 D7C       0.102700
     15 C25         -3.2810    -0.1970    -2.6580 c3         1 D7C      -0.056800
     16 C26         -7.3110     0.4460     0.3890 c3         1 D7C      -0.153400
     17 C27          0.6880    -3.0630    -0.4480 c3         1 D7C      -0.111100
     18 C15         -0.3410     0.6540     1.8280 c3         1 D7C      -0.157700
     19 N6           2.5690     1.2080     0.6090 nd         1 D7C      -0.605100
     20 N18         -2.8130     0.7090     1.9390 nc         1 D7C      -0.370300
     21 N17         -1.8050     0.2990    -0.1160 nd         1 D7C      -0.590100
     22 N24         -5.0940     0.6190     1.3670 nd         1 D7C      -0.639000
     23 N4           3.2250    -0.7160    -0.3660 na         1 D7C      -0.212600
     24 N20         -3.1630     0.3010    -0.1670 na         1 D7C       0.083900
     25 N3           1.3350    -0.9590     0.7910 n          1 D7C      -0.336300
     26 O14         -0.0270    -1.5950     2.5070 o          1 D7C      -0.559100
     27 H1           6.6070     3.2020    -0.6330 ha         1 D7C       0.114000
     28 H2           7.3220     1.0460    -1.6750 ha         1 D7C       0.113000
     29 H3           4.3600     3.3890     0.4760 ha         1 D7C       0.129000
     30 H4           5.7850    -0.9480    -1.6190 ha         1 D7C       0.118000
     31 H5          -5.9880    -0.0120    -1.8590 ha         1 D7C       0.140000
     32 H6           3.9520    -2.5690     0.2730 h1         1 D7C       0.067700
     33 H7           3.1170    -2.5900    -1.2990 h1         1 D7C       0.067700
     34 H8           1.8800    -2.9810     1.3680 h1         1 D7C       0.092700
     35 H9          -2.6520    -1.0940    -2.6170 hc         1 D7C       0.068700
     36 H10         -4.0370    -0.3540    -3.4350 hc         1 D7C       0.068700
     37 H11         -2.6500     0.6430    -2.9710 hc         1 D7C       0.068700
     38 H12         -7.7470    -0.5140     0.0920 hc         1 D7C       0.061033
     39 H13         -7.6300     0.6550     1.4180 hc         1 D7C       0.061033
     40 H14         -7.7320     1.2250    -0.2570 hc         1 D7C       0.061033
     41 H15          1.0220    -4.0640    -0.7450 hc         1 D7C       0.053700
     42 H16         -0.2720    -3.1730     0.0690 hc         1 D7C       0.053700
     43 H17          0.5120    -2.4810    -1.3610 hc         1 D7C       0.053700
     44 H18          0.2050     1.4380     1.3070 hc         1 D7C       0.106700
     45 H19         -0.4660     0.9320     2.8790 hc         1 D7C       0.106700
     46 C13          0.3510    -0.6980     1.7630 c          1 D7C       0.640100
@<TRIPOS>BOND
     1     1     2 ar  
     2     1     3 ar  
     3     1    27 1   
     4     2     4 ar  
     5     2    28 1   
     6     3     5 ar  
     7     3    29 1   
     8     4     6 ar  
     9     4    30 1   
    10     5     6 ar  
    11     5    19 1   
    12     6    23 1   
    13     7    18 1   
    14     7    20 1   
    15     7    21 2   
    16     8    20 2   
    17     8    22 1   
    18     8    24 1   
    19     9    19 2   
    20     9    23 1   
    21     9    25 1   
    22    10    11 2   
    23    10    12 1   
    24    10    31 1   
    25    11    15 1   
    26    11    24 1   
    27    12    16 1   
    28    12    22 2   
    29    13    14 1   
    30    13    23 1   
    31    13    32 1   
    32    13    33 1   
    33    14    17 1   
    34    14    25 1   
    35    14    34 1   
    36    15    35 1   
    37    15    36 1   
    38    15    37 1   
    39    16    38 1   
    40    16    39 1   
    41    16    40 1   
    42    17    41 1   
    43    17    42 1   
    44    17    43 1   
    45    18    44 1   
    46    18    45 1   
    47    18    46 1   
    48    21    24 1   
    49    25    46 1   
    50    26    46 2   
@<TRIPOS>SUBSTRUCTURE
     1 D7C         1 TEMP              0 ****  ****    0 ROOT
