@<TRIPOS>MOLECULE
D7D
   43    45     1     0     0
SMALL
No Charge or Current Charge


@<TRIPOS>ATOM
      1 C1          -4.9540     0.5750    -0.2390 ca         1 D7D       0.143500
      2 C2          -3.8800    -0.2750    -0.3160 ca         1 D7D      -0.245800
      3 N3           2.3310     0.9150    -0.6450 n7         1 D7D      -0.853300
      4 C4          -0.3840    -0.5490     0.9550 cy         1 D7D       0.238500
      5 C5           0.7770    -1.0490     0.0340 cy         1 D7D      -0.109400
      6 C6           1.4580     0.3230     0.3460 cy         1 D7D       0.184500
      7 C8           4.4410    -0.3260     0.5660 c3         1 D7D      -0.345400
      8 C9           5.8620    -0.9310     0.4710 c3         1 D7D      -0.043400
      9 C10          6.4040    -1.3720     1.8430 c3         1 D7D      -0.085100
     10 C11         -1.9800    -2.5050     0.6070 c3         1 D7D       0.219100
     11 C12         -4.0590    -1.1170    -1.4650 cc         1 D7D      -0.208200
     12 C13         -5.2610    -0.7490    -2.0450 cd         1 D7D      -0.179100
     13 O1           3.4530    -0.9940    -1.8320 o          1 D7D      -0.525500
     14 O            4.6370     1.2490    -1.5710 o          1 D7D      -0.525500
     15 C7           0.0040     0.8800     0.4380 cy         1 D7D      -0.109400
     16 C3          -2.8430    -0.1910     0.6320 ca         1 D7D       0.433900
     17 N           -2.9190     0.7320     1.6150 nb         1 D7D      -0.303000
     18 N4          -5.8260     0.3030    -1.2820 na         1 D7D      -0.316400
     19 N1          -5.0400     1.4990     0.7350 nb         1 D7D      -0.228000
     20 C           -4.0120     1.5300     1.6160 ca         1 D7D       0.178900
     21 H8           1.8750     0.9070    -1.5560 hn         1 D7D       0.480000
     22 H           -0.1540    -0.6820     2.0220 h1         1 D7D       0.072700
     23 H4           1.3090    -1.9390     0.3830 hc         1 D7D       0.067700
     24 H5           0.4940    -1.1980    -1.0150 hc         1 D7D       0.067700
     25 H1           1.9540     0.3380     1.3280 h1         1 D7D       0.100700
     26 H10          3.7460    -1.0670     0.9740 h1         1 D7D       0.086200
     27 H9           4.4460     0.5680     1.2000 h1         1 D7D       0.086200
     28 H11          5.8510    -1.7980    -0.2030 hc         1 D7D       0.058700
     29 H12          6.5520    -0.1960     0.0360 hc         1 D7D       0.058700
     30 H15          5.7540    -2.1350     2.2890 hc         1 D7D       0.035033
     31 H14          7.4100    -1.7950     1.7390 hc         1 D7D       0.035033
     32 H13          6.4590    -0.5190     2.5300 hc         1 D7D       0.035033
     33 H18         -1.3730    -3.0150     1.3670 h1         1 D7D       0.042033
     34 H17         -3.0350    -2.7200     0.8240 h1         1 D7D       0.042033
     35 H16         -1.7340    -2.9250    -0.3770 h1         1 D7D       0.042033
     36 H19         -3.3860    -1.8880    -1.8370 ha         1 D7D       0.202000
     37 H20         -5.7480    -1.1470    -2.9350 h4         1 D7D       0.217000
     38 H7          -0.4460     1.1570    -0.5220 hc         1 D7D       0.067700
     39 H6          -0.1460     1.7010     1.1460 hc         1 D7D       0.067700
     40 H2          -6.7030     0.7820    -1.4610 hn         1 D7D       0.363000
     41 H3          -4.0720     2.2750     2.4080 h5         1 D7D       0.045100
     42 N2          -1.7200    -1.0490     0.6280 nh         1 D7D      -0.774300
     43 S            3.7820     0.1880    -1.0340 s6         1 D7D       1.182100
@<TRIPOS>BOND
     1     1     2 ar  
     2     1    18 1   
     3     1    19 ar  
     4     2    11 1   
     5     2    16 ar  
     6     3     6 1   
     7     3    21 1   
     8     3    43 1   
     9     4     5 1   
    10     4    15 1   
    11     4    22 1   
    12     4    42 1   
    13     5     6 1   
    14     5    23 1   
    15     5    24 1   
    16     6    15 1   
    17     6    25 1   
    18     7     8 1   
    19     7    26 1   
    20     7    27 1   
    21     7    43 1   
    22     8     9 1   
    23     8    28 1   
    24     8    29 1   
    25     9    30 1   
    26     9    31 1   
    27     9    32 1   
    28    10    33 1   
    29    10    34 1   
    30    10    35 1   
    31    10    42 1   
    32    11    12 2   
    33    11    36 1   
    34    12    18 1   
    35    12    37 1   
    36    13    43 2   
    37    14    43 2   
    38    15    38 1   
    39    15    39 1   
    40    16    17 ar  
    41    16    42 1   
    42    17    20 ar  
    43    18    40 1   
    44    19    20 ar  
    45    20    41 1   
@<TRIPOS>SUBSTRUCTURE
     1 D7D         1 TEMP              0 ****  ****    0 ROOT
