@<TRIPOS>MOLECULE
D7D
   43    45     1     0     0
SMALL
abcg2


@<TRIPOS>ATOM
      1 C1          -5.0300     0.2270    -0.3940 ca         1 D7D       0.143500
      2 C2          -3.9120    -0.6100    -0.2420 ca         1 D7D      -0.245800
      3 N3           2.4310     1.1070    -0.4590 n7         1 D7D      -0.853300
      4 C4          -0.4820     0.1490     1.0710 cy         1 D7D       0.238500
      5 C5           0.9070    -0.4950     0.9050 cy         1 D7D      -0.109400
      6 C6           1.4450     0.9120     0.5830 cy         1 D7D       0.184500
      7 C8           4.3410    -0.8000     0.1780 c3         1 D7D      -0.345400
      8 C9           5.8120    -1.0760     0.4640 c3         1 D7D      -0.043400
      9 C10          6.0410    -2.5590     0.7250 c3         1 D7D      -0.085100
     10 C11         -1.5280    -2.0650     0.5970 c3         1 D7D       0.219100
     11 C12         -4.2730    -1.8780    -0.8050 cc         1 D7D      -0.208200
     12 C13         -5.5570    -1.7560    -1.2460 cd         1 D7D      -0.179100
     13 O1           4.7410     1.2980    -1.3640 o          1 D7D      -0.525500
     14 O            4.3120     1.6780     1.0820 o          1 D7D      -0.525500
     15 C7           0.0150     1.3380     0.2290 cy         1 D7D      -0.109400
     16 C3          -2.7840     0.0090     0.3550 ca         1 D7D       0.433900
     17 N           -2.8640     1.3000     0.6950 nb         1 D7D      -0.303000
     18 N4          -6.0100    -0.4880    -0.9920 na         1 D7D      -0.316400
     19 N1          -5.1150     1.5120    -0.0410 nb         1 D7D      -0.228000
     20 C           -3.9950     1.9640     0.4820 ca         1 D7D       0.178900
     21 H8           2.1750     0.7190    -1.3610 hn         1 D7D       0.480000
     22 H           -0.6310     0.4640     2.1090 h1         1 D7D       0.072700
     23 H4           1.3290    -1.0340     1.7530 hc         1 D7D       0.067700
     24 H5           0.9490    -1.1280     0.0160 hc         1 D7D       0.067700
     25 H1           1.7870     1.4210     1.4840 h1         1 D7D       0.100700
     26 H10          3.9950    -1.3440    -0.7020 h1         1 D7D       0.086200
     27 H9           3.7150    -1.0870     1.0250 h1         1 D7D       0.086200
     28 H11          6.4190    -0.7530    -0.3830 hc         1 D7D       0.058700
     29 H12          6.1330    -0.4950     1.3300 hc         1 D7D       0.058700
     30 H15          5.7550    -3.1620    -0.1380 hc         1 D7D       0.035033
     31 H14          7.0920    -2.7530     0.9350 hc         1 D7D       0.035033
     32 H13          5.4590    -2.9050     1.5800 hc         1 D7D       0.035033
     33 H18         -0.7220    -2.3800     1.2550 h1         1 D7D       0.042033
     34 H17         -2.4410    -2.5120     0.9840 h1         1 D7D       0.042033
     35 H16         -1.3290    -2.4750    -0.3960 h1         1 D7D       0.042033
     36 H19         -3.6750    -2.7690    -0.8900 ha         1 D7D       0.202000
     37 H20         -6.1920    -2.4820    -1.7260 h4         1 D7D       0.217000
     38 H7          -0.1940     1.1750    -0.8310 hc         1 D7D       0.067700
     39 H6          -0.3040     2.3370     0.5120 hc         1 D7D       0.067700
     40 H2          -6.9230    -0.1340    -1.2290 hn         1 D7D       0.363000
     41 H3          -3.9890     3.0070     0.7850 h5         1 D7D       0.045100
     42 N2          -1.6170    -0.6200     0.6000 nh         1 D7D      -0.774300
     43 S            4.0380     0.9350    -0.1420 s6         1 D7D       1.182100
@<TRIPOS>BOND
     1     1     2 ar  
     2     1    18 1   
     3     1    19 ar  
     4     2    11 1   
     5     2    16 ar  
     6     3     6 1   
     7     3    21 1   
     8     3    43 1   
     9     4     5 1   
    10     4    15 1   
    11     4    22 1   
    12     4    42 1   
    13     5     6 1   
    14     5    23 1   
    15     5    24 1   
    16     6    15 1   
    17     6    25 1   
    18     7     8 1   
    19     7    26 1   
    20     7    27 1   
    21     7    43 1   
    22     8     9 1   
    23     8    28 1   
    24     8    29 1   
    25     9    30 1   
    26     9    31 1   
    27     9    32 1   
    28    10    33 1   
    29    10    34 1   
    30    10    35 1   
    31    10    42 1   
    32    11    12 2   
    33    11    36 1   
    34    12    18 1   
    35    12    37 1   
    36    13    43 2   
    37    14    43 2   
    38    15    38 1   
    39    15    39 1   
    40    16    17 ar  
    41    16    42 1   
    42    17    20 ar  
    43    18    40 1   
    44    19    20 ar  
    45    20    41 1   
@<TRIPOS>SUBSTRUCTURE
     1 D7D         1 TEMP              0 ****  ****    0 ROOT
