@<TRIPOS>MOLECULE
D7E
   45    47     1     0     0
SMALL
abcg2


@<TRIPOS>ATOM
      1 C1          -0.6970     3.0330    -0.3550 c3         1 D7E      -0.117100
      2 C2          -0.7030     1.6360    -0.9490 c3         1 D7E       0.077600
      3 N3          -1.2420     0.6380    -0.0420 na         1 D7E      -0.158600
      4 C4          -2.5440     0.2060    -0.0200 ca         1 D7E      -0.088200
      5 C5          -3.6440     0.5330    -0.8000 ca         1 D7E      -0.053000
      6 C6          -4.8290    -0.1180    -0.5000 ca         1 D7E      -0.184300
      7 C7          -4.9100    -1.0610     0.5420 ca         1 D7E      -0.095000
      8 C8          -3.8090    -1.3720     1.3100 ca         1 D7E      -0.050000
      9 C9          -2.6050    -0.7260     1.0270 ca         1 D7E       0.097400
     10 N10         -1.3800    -0.8390     1.6210 nc         1 D7E      -0.550100
     11 C11         -0.6060    -0.0190     0.9640 cd         1 D7E       0.420800
     12 C12          0.8330     0.2140     1.3250 c3         1 D7E       0.224200
     13 C14          0.9350     0.9410     2.6610 c3         1 D7E      -0.102100
     14 N15          1.5200    -1.0680     1.4310 n7         1 D7E      -0.872300
     15 S16          2.0560    -1.7950     0.0610 sy         1 D7E       1.162600
     16 O17          2.5830    -3.0870     0.4580 o          1 D7E      -0.524000
     17 O18          0.9780    -1.6930    -0.9080 o          1 D7E      -0.524000
     18 C19          3.4040    -0.8070    -0.5350 ca         1 D7E      -0.312500
     19 C20          4.6280    -0.8800     0.1180 ca         1 D7E      -0.011500
     20 C21          5.6790    -0.0890    -0.3110 ca         1 D7E      -0.124500
     21 C22          5.4880     0.7630    -1.3910 ca         1 D7E       0.166000
     22 C23          4.2710     0.8340    -2.0500 ca         1 D7E      -0.124500
     23 C24          3.2190     0.0410    -1.6170 ca         1 D7E      -0.011500
     24 CL25         6.7970     1.7510    -1.9260 cl         1 D7E      -0.181000
     25 C26         -6.0710     0.1650    -1.2800 c3         1 D7E       0.356300
     26 F27         -6.5460    -0.9360    -1.8830 f          1 D7E      -0.115667
     27 F28         -7.0620     0.6150    -0.4920 f          1 D7E      -0.115667
     28 F29         -5.8890     1.0830    -2.2350 f          1 D7E      -0.115667
     29 H11C        -0.0410     3.1000     0.5130 hc         1 D7E       0.049033
     30 H12C        -0.3390     3.7440    -1.0980 hc         1 D7E       0.049033
     31 H13C        -1.6980     3.3360    -0.0500 hc         1 D7E       0.049033
     32 H21C        -1.3070     1.6090    -1.8550 h1         1 D7E       0.062700
     33 H22C         0.2990     1.3330    -1.2490 h1         1 D7E       0.062700
     34 H5          -3.5760     1.2630    -1.5960 ha         1 D7E       0.132000
     35 H7          -5.8510    -1.5540     0.7510 ha         1 D7E       0.128000
     36 H8          -3.8760    -2.0960     2.1110 ha         1 D7E       0.136000
     37 H12          1.3110     0.8480     0.5700 h1         1 D7E       0.045700
     38 H141         1.9780     1.1430     2.9030 hc         1 D7E       0.055367
     39 H142         0.4110     1.8950     2.6100 hc         1 D7E       0.055367
     40 H143         0.4910     0.3480     3.4590 hc         1 D7E       0.055367
     41 H15          2.1430    -1.1740     2.2240 hn         1 D7E       0.497000
     42 H20          4.7790    -1.5470     0.9570 ha         1 D7E       0.137000
     43 H24          2.2750     0.0860    -2.1410 ha         1 D7E       0.137000
     44 H21          6.6360    -0.1400     0.1890 ha         1 D7E       0.136500
     45 H23          4.1380     1.4960    -2.8940 ha         1 D7E       0.136500
@<TRIPOS>BOND
     1     1     2 1   
     2     1    29 1   
     3     1    30 1   
     4     1    31 1   
     5     2     3 1   
     6     2    32 1   
     7     2    33 1   
     8     3     4 1   
     9     3    11 1   
    10     4     5 ar  
    11     4     9 ar  
    12     5     6 ar  
    13     5    34 1   
    14     6     7 ar  
    15     6    25 1   
    16     7     8 ar  
    17     7    35 1   
    18     8     9 ar  
    19     8    36 1   
    20     9    10 1   
    21    10    11 2   
    22    11    12 1   
    23    12    13 1   
    24    12    14 1   
    25    12    37 1   
    26    13    38 1   
    27    13    39 1   
    28    13    40 1   
    29    14    15 1   
    30    14    41 1   
    31    15    16 2   
    32    15    17 2   
    33    15    18 1   
    34    18    19 ar  
    35    18    23 ar  
    36    19    20 ar  
    37    19    42 1   
    38    20    21 ar  
    39    20    44 1   
    40    21    22 ar  
    41    21    24 1   
    42    22    23 ar  
    43    22    45 1   
    44    23    43 1   
    45    25    26 1   
    46    25    27 1   
    47    25    28 1   
@<TRIPOS>SUBSTRUCTURE
     1 D7E         1 TEMP              0 ****  ****    0 ROOT
