@<TRIPOS>MOLECULE
D7E
   45    47     1     0     0
SMALL
No Charge or Current Charge


@<TRIPOS>ATOM
      1 C1          -2.0080     3.4180    -0.4420 c3         1 D7E      -0.117100
      2 C2          -1.5150     2.1000    -1.0650 c3         1 D7E       0.077600
      3 N3          -1.6090     0.9620    -0.1330 na         1 D7E      -0.158600
      4 C4          -2.7130     0.1700     0.0420 ca         1 D7E      -0.088200
      5 C5          -3.9420     0.1850    -0.6380 ca         1 D7E      -0.053000
      6 C6          -4.9350    -0.7500    -0.2570 ca         1 D7E      -0.184300
      7 C7          -4.6500    -1.6750     0.7830 ca         1 D7E      -0.095000
      8 C8          -3.4030    -1.6560     1.4440 ca         1 D7E      -0.050000
      9 C9          -2.4450    -0.7130     1.0500 ca         1 D7E       0.097400
     10 N10         -1.1780    -0.5310     1.5780 nc         1 D7E      -0.550100
     11 C11         -0.6970     0.4950     0.8370 cd         1 D7E       0.420800
     12 C12          0.6930     1.1110     1.0810 c3         1 D7E       0.224200
     13 C14          0.8190     1.6720     2.5110 c3         1 D7E      -0.102100
     14 N15          1.8350     0.1900     0.8470 n7         1 D7E      -0.872300
     15 S16          2.0110    -0.4840    -0.6670 sy         1 D7E       1.162600
     16 O17          1.4270    -1.8240    -0.5860 o          1 D7E      -0.524000
     17 O18          1.5680     0.5270    -1.6280 o          1 D7E      -0.524000
     18 C19          3.8020    -0.6060    -0.7100 ca         1 D7E      -0.312500
     19 C20          4.4460    -1.7030    -0.0970 ca         1 D7E      -0.011500
     20 C21          5.8480    -1.7980    -0.1260 ca         1 D7E      -0.124500
     21 C22          6.6080    -0.8050    -0.7620 ca         1 D7E       0.166000
     22 C23          5.9720     0.2890    -1.3710 ca         1 D7E      -0.124500
     23 C24          4.5700     0.3930    -1.3470 ca         1 D7E      -0.011500
     24 Cl25         8.3620    -0.9290    -0.7950 cl         1 D7E      -0.181000
     25 C26         -6.2880    -0.7780    -0.9780 c3         1 D7E       0.356300
     26 F27         -6.2500    -1.5870    -2.0600 f          1 D7E      -0.115667
     27 F28         -7.2860    -1.2280    -0.1830 f          1 D7E      -0.115667
     28 F29         -6.6630     0.4470    -1.4120 f          1 D7E      -0.115667
     29 H11C        -1.4120     3.6770     0.4410 hc         1 D7E       0.049033
     30 H12C        -1.9240     4.2370    -1.1660 hc         1 D7E       0.049033
     31 H13C        -3.0590     3.3320    -0.1390 hc         1 D7E       0.049033
     32 H21C        -2.1040     1.8780    -1.9630 h1         1 D7E       0.062700
     33 H22C        -0.4730     2.2190    -1.3870 h1         1 D7E       0.062700
     34 H5          -4.1250     0.8990    -1.4380 ha         1 D7E       0.132000
     35 H7          -5.3920    -2.4110     1.0840 ha         1 D7E       0.128000
     36 H8          -3.1870    -2.3590     2.2440 ha         1 D7E       0.136000
     37 H12          0.7900     1.9730     0.4090 h1         1 D7E       0.045700
     38 H141         1.7730     2.1970     2.6420 hc         1 D7E       0.055367
     39 H142         0.0100     2.3840     2.7140 hc         1 D7E       0.055367
     40 H143         0.7630     0.8670     3.2540 hc         1 D7E       0.055367
     41 H15          2.7190     0.6850     0.9540 hn         1 D7E       0.497000
     42 H20          3.8660    -2.4790     0.4020 ha         1 D7E       0.137000
     43 H24          4.0910     1.2470    -1.8250 ha         1 D7E       0.137000
     44 H21          6.3450    -2.6420     0.3450 ha         1 D7E       0.136500
     45 H23          6.5660     1.0560    -1.8620 ha         1 D7E       0.136500
@<TRIPOS>BOND
     1     1     2 1   
     2     1    29 1   
     3     1    30 1   
     4     1    31 1   
     5     2     3 1   
     6     2    32 1   
     7     2    33 1   
     8     3     4 1   
     9     3    11 1   
    10     4     5 ar  
    11     4     9 ar  
    12     5     6 ar  
    13     5    34 1   
    14     6     7 ar  
    15     6    25 1   
    16     7     8 ar  
    17     7    35 1   
    18     8     9 ar  
    19     8    36 1   
    20     9    10 1   
    21    10    11 2   
    22    11    12 1   
    23    12    13 1   
    24    12    14 1   
    25    12    37 1   
    26    13    38 1   
    27    13    39 1   
    28    13    40 1   
    29    14    15 1   
    30    14    41 1   
    31    15    16 2   
    32    15    17 2   
    33    15    18 1   
    34    18    19 ar  
    35    18    23 ar  
    36    19    20 ar  
    37    19    42 1   
    38    20    21 ar  
    39    20    44 1   
    40    21    22 ar  
    41    21    24 1   
    42    22    23 ar  
    43    22    45 1   
    44    23    43 1   
    45    25    26 1   
    46    25    27 1   
    47    25    28 1   
@<TRIPOS>SUBSTRUCTURE
     1 D7E         1 TEMP              0 ****  ****    0 ROOT
