@<TRIPOS>MOLECULE
D7F
   55    58     1     0     0
SMALL
abcg2


@<TRIPOS>ATOM
      1 C4         -12.2940     7.8000    -0.5220 ca         1 D7F      -0.009000
      2 C14         -4.9600     7.1320     1.2600 ca         1 D7F       0.146100
      3 C5         -11.6810     8.8520    -1.1950 ca         1 D7F      -0.200000
      4 C6         -10.2970     8.8800    -1.4000 ca         1 D7F       0.154100
      5 C11         -7.2080     7.5370    -0.3420 ca         1 D7F       0.202300
      6 C7         -11.8180     5.5200     0.6420 c          1 D7F       0.325800
      7 C8          -9.5370     5.6600     0.4290 cc         1 D7F       0.071700
      8 C9          -8.2410     5.4370     0.6900 cd         1 D7F      -0.140000
      9 C10         -7.1690     6.4110     0.4970 ca         1 D7F      -0.007000
     10 C12         -6.1590     8.4350    -0.3530 ca         1 D7F      -0.075000
     11 C13         -5.0290     8.2480     0.4350 ca         1 D7F      -0.186000
     12 N1         -10.6120     4.8760     0.8320 n          1 D7F      -0.225700
     13 N2          -0.7320     8.0460     3.3600 n3         1 D7F      -0.764600
     14 C3         -11.4930     6.7930    -0.0270 ca         1 D7F      -0.163000
     15 C1          -9.5020     7.8250    -0.9150 ca         1 D7F       0.244300
     16 C15         -6.0270     6.2360     1.2780 ca         1 D7F      -0.136000
     17 C16        -10.4640     3.6290     1.5370 c3         1 D7F       0.064900
     18 C17        -10.3860    10.9190    -2.6040 c3         1 D7F       0.143900
     19 C18         -2.8250     7.7280     2.1300 c3         1 D7F       0.158600
     20 C19         -1.8770     7.1840     3.1850 c3         1 D7F       0.184800
     21 C2         -10.1150     6.8340    -0.1950 ca         1 D7F      -0.067800
     22 C20         -0.1280     7.9630     4.6760 c3         1 D7F       0.189800
     23 C21          0.4640     6.6210     5.1050 c3         1 D7F      -0.128100
     24 C22          0.1860     8.1190     2.2350 c3         1 D7F       0.189800
     25 C23          0.6920     6.8060     1.6370 c3         1 D7F      -0.128100
     26 O1          -8.1960     7.7640    -1.2780 os         1 D7F      -0.485600
     27 O2         -12.9060     5.0890     0.9630 o          1 D7F      -0.316000
     28 O3          -9.6450     9.8390    -2.0650 os         1 D7F      -0.318100
     29 O4          -3.9260     6.8370     2.0680 os         1 D7F      -0.352100
     30 H1         -13.3700     7.7810    -0.4070 ha         1 D7F       0.136000
     31 H2         -12.3000     9.6510    -1.5810 ha         1 D7F       0.124000
     32 H3          -7.9580     4.5330     1.2160 ha         1 D7F       0.122000
     33 H4          -6.2110     9.2930    -1.0120 ha         1 D7F       0.131000
     34 H5          -4.2300     8.9730     0.3790 ha         1 D7F       0.124000
     35 H7          -5.9710     5.3770     1.9370 ha         1 D7F       0.127000
     36 H8          -9.9990     3.7790     2.5130 h1         1 D7F       0.049033
     37 H9         -11.4440     3.1840     1.6830 h1         1 D7F       0.049033
     38 H10         -9.8520     2.9360     0.9600 h1         1 D7F       0.049033
     39 H11         -9.6650    11.5700    -3.0900 h1         1 D7F       0.045367
     40 H12        -11.1150    10.5820    -3.3450 h1         1 D7F       0.045367
     41 H13        -10.9040    11.4840    -1.8260 h1         1 D7F       0.045367
     42 H14         -3.1510     8.7360     2.4100 h1         1 D7F       0.041700
     43 H15         -2.3400     7.7950     1.1490 h1         1 D7F       0.041700
     44 H16         -2.4180     7.1420     4.1350 h1         1 D7F       0.044200
     45 H17         -1.6160     6.1460     2.9330 h1         1 D7F       0.044200
     46 H18         -0.8920     8.2480     5.4060 h1         1 D7F       0.045700
     47 H19          0.6470     8.7320     4.7360 h1         1 D7F       0.045700
     48 H20          0.8150     6.6830     6.1360 hc         1 D7F       0.037200
     49 H21         -0.2760     5.8200     5.0610 hc         1 D7F       0.037200
     50 H22          1.3130     6.3260     4.4890 hc         1 D7F       0.037200
     51 H23          1.0410     8.7180     2.5570 h1         1 D7F       0.045700
     52 H24         -0.2840     8.6950     1.4310 h1         1 D7F       0.045700
     53 H25          1.3770     7.0240     0.8160 hc         1 D7F       0.037200
     54 H26          1.2290     6.1960     2.3620 hc         1 D7F       0.037200
     55 H27         -0.1170     6.2020     1.2250 hc         1 D7F       0.037200
@<TRIPOS>BOND
     1     1     3 ar  
     2     1    14 ar  
     3     1    30 1   
     4     2    11 ar  
     5     2    16 ar  
     6     2    29 1   
     7     3     4 ar  
     8     3    31 1   
     9     4    15 ar  
    10     4    28 1   
    11     5     9 ar  
    12     5    10 ar  
    13     5    26 1   
    14     6    12 1   
    15     6    14 1   
    16     6    27 2   
    17     7     8 2   
    18     7    12 1   
    19     7    21 1   
    20     8     9 1   
    21     8    32 1   
    22     9    16 ar  
    23    10    11 ar  
    24    10    33 1   
    25    11    34 1   
    26    12    17 1   
    27    13    20 1   
    28    13    22 1   
    29    13    24 1   
    30    14    21 ar  
    31    15    21 ar  
    32    15    26 1   
    33    16    35 1   
    34    17    36 1   
    35    17    37 1   
    36    17    38 1   
    37    18    28 1   
    38    18    39 1   
    39    18    40 1   
    40    18    41 1   
    41    19    20 1   
    42    19    29 1   
    43    19    42 1   
    44    19    43 1   
    45    20    44 1   
    46    20    45 1   
    47    22    23 1   
    48    22    46 1   
    49    22    47 1   
    50    23    48 1   
    51    23    49 1   
    52    23    50 1   
    53    24    25 1   
    54    24    51 1   
    55    24    52 1   
    56    25    53 1   
    57    25    54 1   
    58    25    55 1   
@<TRIPOS>SUBSTRUCTURE
     1 D7F         1 TEMP              0 ****  ****    0 ROOT
