@<TRIPOS>MOLECULE
D7F
   55    58     1     0     0
SMALL
No Charge or Current Charge


@<TRIPOS>ATOM
      1 C4         -12.4390     7.6480    -0.8080 ca         1 D7F      -0.009000
      2 C14         -5.0110     7.2550     1.4810 ca         1 D7F       0.146100
      3 C5         -11.8410     8.7340    -1.4770 ca         1 D7F      -0.200000
      4 C6         -10.4230     8.8420    -1.5570 ca         1 D7F       0.154100
      5 C11         -7.2600     7.6740    -0.1820 ca         1 D7F       0.202300
      6 C7         -11.9540     5.4470     0.5010 c          1 D7F       0.325800
      7 C8          -9.6590     5.7040     0.4950 cc         1 D7F       0.071700
      8 C9          -8.3630     5.6300     0.9530 cd         1 D7F      -0.140000
      9 C10         -7.2630     6.5910     0.7420 ca         1 D7F      -0.007000
     10 C12         -6.1370     8.5200    -0.2580 ca         1 D7F      -0.075000
     11 C13         -5.0210     8.3280     0.5710 ca         1 D7F      -0.186000
     12 N1         -10.7230     4.8830     0.8670 n          1 D7F      -0.225700
     13 N2          -0.5160     8.0210     3.5650 n3         1 D7F      -0.764600
     14 C3         -11.5990     6.7060    -0.2050 ca         1 D7F      -0.163000
     15 C1          -9.5940     7.8720    -0.9220 ca         1 D7F       0.244300
     16 C15         -6.1200     6.4010     1.5520 ca         1 D7F      -0.136000
     17 C16        -10.6200     3.6290     1.6360 c3         1 D7F       0.064900
     18 C17        -10.5680    10.8940    -2.9390 c3         1 D7F       0.143900
     19 C18         -2.7580     7.8170     2.3190 c3         1 D7F       0.158600
     20 C19         -1.7790     7.2440     3.3740 c3         1 D7F       0.184800
     21 C2         -10.2140     6.8290    -0.2270 ca         1 D7F      -0.067800
     22 C20          0.2330     7.6890     4.8080 c3         1 D7F       0.189800
     23 C21          0.8550     6.2790     4.8880 c3         1 D7F      -0.128100
     24 C22          0.3070     8.2480     2.3400 c3         1 D7F       0.189800
     25 C23          0.6960     6.9940     1.5230 c3         1 D7F      -0.128100
     26 O1          -8.2320     7.9030    -1.1290 os         1 D7F      -0.485600
     27 O2         -13.0710     5.0040     0.7140 o          1 D7F      -0.316000
     28 O3          -9.8160     9.8730    -2.2590 os         1 D7F      -0.318100
     29 O4          -3.9440     7.0000     2.3170 os         1 D7F      -0.352100
     30 H1         -13.5220     7.5370    -0.7730 ha         1 D7F       0.136000
     31 H2         -12.4900     9.4630    -1.9520 ha         1 D7F       0.124000
     32 H3          -8.1350     4.7750     1.5800 ha         1 D7F       0.122000
     33 H4          -6.1330     9.3300    -0.9830 ha         1 D7F       0.131000
     34 H5          -4.1780     9.0060     0.4810 ha         1 D7F       0.124000
     35 H7          -6.0930     5.5810     2.2650 ha         1 D7F       0.127000
     36 H8         -10.4320     3.8610     2.6920 h1         1 D7F       0.049033
     37 H9         -11.5490     3.0530     1.5520 h1         1 D7F       0.049033
     38 H10         -9.7930     3.0230     1.2450 h1         1 D7F       0.049033
     39 H11         -9.8880    11.6050    -3.4250 h1         1 D7F       0.045367
     40 H12        -11.2110    10.4560    -3.7120 h1         1 D7F       0.045367
     41 H13        -11.1940    11.4540    -2.2320 h1         1 D7F       0.045367
     42 H14         -3.0030     8.8540     2.5810 h1         1 D7F       0.041700
     43 H15         -2.2840     7.8060     1.3290 h1         1 D7F       0.041700
     44 H16         -2.3210     7.2010     4.3290 h1         1 D7F       0.044200
     45 H17         -1.5460     6.2070     3.0990 h1         1 D7F       0.044200
     46 H18         -0.4480     7.7930     5.6640 h1         1 D7F       0.045700
     47 H19          1.0330     8.4250     4.9680 h1         1 D7F       0.045700
     48 H20          1.1790     6.0770     5.9150 hc         1 D7F       0.037200
     49 H21          0.1360     5.5030     4.6030 hc         1 D7F       0.037200
     50 H22          1.7400     6.2020     4.2490 hc         1 D7F       0.037200
     51 H23          1.2290     8.7800     2.6100 h1         1 D7F       0.045700
     52 H24         -0.2390     8.9200     1.6640 h1         1 D7F       0.045700
     53 H25          1.2760     7.2950     0.6420 hc         1 D7F       0.037200
     54 H26          1.3120     6.3000     2.1000 hc         1 D7F       0.037200
     55 H27         -0.1910     6.4590     1.1670 hc         1 D7F       0.037200
@<TRIPOS>BOND
     1     1     3 ar  
     2     1    14 ar  
     3     1    30 1   
     4     2    11 ar  
     5     2    16 ar  
     6     2    29 1   
     7     3     4 ar  
     8     3    31 1   
     9     4    15 ar  
    10     4    28 1   
    11     5     9 ar  
    12     5    10 ar  
    13     5    26 1   
    14     6    12 1   
    15     6    14 1   
    16     6    27 2   
    17     7     8 2   
    18     7    12 1   
    19     7    21 1   
    20     8     9 1   
    21     8    32 1   
    22     9    16 ar  
    23    10    11 ar  
    24    10    33 1   
    25    11    34 1   
    26    12    17 1   
    27    13    20 1   
    28    13    22 1   
    29    13    24 1   
    30    14    21 ar  
    31    15    21 ar  
    32    15    26 1   
    33    16    35 1   
    34    17    36 1   
    35    17    37 1   
    36    17    38 1   
    37    18    28 1   
    38    18    39 1   
    39    18    40 1   
    40    18    41 1   
    41    19    20 1   
    42    19    29 1   
    43    19    42 1   
    44    19    43 1   
    45    20    44 1   
    46    20    45 1   
    47    22    23 1   
    48    22    46 1   
    49    22    47 1   
    50    23    48 1   
    51    23    49 1   
    52    23    50 1   
    53    24    25 1   
    54    24    51 1   
    55    24    52 1   
    56    25    53 1   
    57    25    54 1   
    58    25    55 1   
@<TRIPOS>SUBSTRUCTURE
     1 D7F         1 TEMP              0 ****  ****    0 ROOT
