@<TRIPOS>MOLECULE
D7G
   72    73     1     0     0
SMALL
No Charge or Current Charge


@<TRIPOS>ATOM
      1 O1          -4.3480    -0.7020    -1.7250 o          1 D7G      -0.495100
      2 C1          -4.2840    -0.7060    -0.4930 c          1 D7G       0.488100
      3 C2          -5.4210    -1.3910     0.3930 c          1 D7G       0.505100
      4 O2          -5.3600    -1.4760     1.6170 o          1 D7G      -0.580100
      5 N1          -6.4950    -1.8920    -0.3280 ns         1 D7G      -0.459900
      6 C3          -7.6310    -2.5520     0.2580 cx         1 D7G       0.039700
      7 C4          -8.5410    -3.3290    -0.6610 cx         1 D7G      -0.131900
      8 C5          -7.6250    -4.0600     0.2900 cx         1 D7G      -0.131900
      9 C6          -3.0950    -0.0660     0.2720 c3         1 D7G       0.031700
     10 N2          -1.9130     0.0560    -0.6130 ns         1 D7G      -0.488900
     11 C7          -0.6080    -0.1870    -0.2300 c          1 D7G       0.594100
     12 O3          -0.3340    -0.6440     0.8730 o          1 D7G      -0.606100
     13 C8           0.4770     0.1810    -1.2840 c3         1 D7G       0.057700
     14 N3           1.7280     0.5390    -0.5850 ns         1 D7G      -0.496900
     15 C9           2.7230     1.3170    -1.1000 c          1 D7G       0.644100
     16 O4           2.7110     1.8340    -2.2060 o          1 D7G      -0.553000
     17 O5           3.7050     1.4470    -0.1690 os         1 D7G      -0.447100
     18 C10          4.8500     2.2530    -0.5140 c3         1 D7G       0.185600
     19 C11          5.8370     2.2540     0.6750 c3         1 D7G       0.154600
     20 O6           6.4470     0.9520     0.7800 os         1 D7G      -0.435000
     21 C12          7.3850     0.8170     1.8660 c3         1 D7G       0.160600
     22 C13          7.9660    -0.6170     1.8550 c3         1 D7G       0.159600
     23 O7           8.8600    -0.7570     0.7310 os         1 D7G      -0.442000
     24 C14          9.4620    -2.0560     0.6070 c3         1 D7G       0.145900
     25 C15          0.7500    -0.9710    -2.2940 c3         1 D7G      -0.092400
     26 C16         -0.4410    -1.4020    -3.1970 c3         1 D7G      -0.063700
     27 C17         -0.9550    -0.2530    -4.0990 c3         1 D7G      -0.085600
     28 C18         -0.0620    -2.6320    -4.0520 c3         1 D7G      -0.085600
     29 C19         -3.4820     1.3040     0.8900 c3         1 D7G      -0.037100
     30 C20         -2.3110     2.0030     1.5750 ca         1 D7G      -0.090300
     31 C21         -1.5630     2.9810     0.8880 ca         1 D7G      -0.105500
     32 C22         -0.4680     3.6040     1.5120 ca         1 D7G      -0.105500
     33 C23         -0.1170     3.2570     2.8270 ca         1 D7G      -0.105000
     34 C24         -0.8610     2.2860     3.5180 ca         1 D7G      -0.105500
     35 C25         -1.9540     1.6600     2.8940 ca         1 D7G      -0.105500
     36 HN1         -6.4530    -1.7700    -1.3360 hn         1 D7G       0.340500
     37 H3          -8.0810    -2.0190     1.0980 h1         1 D7G       0.089700
     38 H41         -9.6060    -3.3240    -0.4370 hc         1 D7G       0.080700
     39 H42         -8.3000    -3.3590    -1.7210 hc         1 D7G       0.080700
     40 H51         -6.7650    -4.5770    -0.1290 hc         1 D7G       0.080700
     41 H52         -8.0730    -4.5460     1.1530 hc         1 D7G       0.080700
     42 H6          -2.8500    -0.7530     1.0930 h1         1 D7G       0.110700
     43 HN2         -2.0570     0.4060    -1.5540 hn         1 D7G       0.329500
     44 H8           0.1260     1.0700    -1.8220 h1         1 D7G       0.086700
     45 HN3          1.8710     0.2040     0.3600 hn         1 D7G       0.345500
     46 H101         4.5440     3.2870    -0.7210 h1         1 D7G       0.058700
     47 H102         5.3560     1.8610    -1.4070 h1         1 D7G       0.058700
     48 H111         5.2990     2.5140     1.5970 h1         1 D7G       0.032200
     49 H112         6.6040     3.0200     0.5000 h1         1 D7G       0.032200
     50 H121         6.8820     0.9880     2.8260 h1         1 D7G       0.028200
     51 H122         8.2020     1.5450     1.7740 h1         1 D7G       0.028200
     52 H131         7.1460    -1.3450     1.7990 h1         1 D7G       0.030200
     53 H132         8.5090    -0.7860     2.7940 h1         1 D7G       0.030200
     54 H141        10.0560    -2.2970     1.4980 h1         1 D7G       0.027700
     55 H142         8.6940    -2.8310     0.4800 h1         1 D7G       0.027700
     56 H143        10.1260    -2.0870    -0.2660 h1         1 D7G       0.027700
     57 H151         1.5840    -0.6790    -2.9440 hc         1 D7G       0.057700
     58 H152         1.0980    -1.8450    -1.7280 hc         1 D7G       0.057700
     59 H16         -1.2700    -1.7180    -2.5510 hc         1 D7G       0.062700
     60 H171        -0.1540     0.1190    -4.7500 hc         1 D7G       0.032700
     61 H172        -1.7770    -0.6010    -4.7350 hc         1 D7G       0.032700
     62 H173        -1.3320     0.5880    -3.5060 hc         1 D7G       0.032700
     63 H181         0.2490    -3.4680    -3.4140 hc         1 D7G       0.032700
     64 H182        -0.9170    -2.9670    -4.6510 hc         1 D7G       0.032700
     65 H183         0.7630    -2.3950    -4.7350 hc         1 D7G       0.032700
     66 H191        -3.8860     1.9490     0.0990 hc         1 D7G       0.064700
     67 H192        -4.2990     1.1620     1.6080 hc         1 D7G       0.064700
     68 H21         -1.8240     3.2530    -0.1320 ha         1 D7G       0.114000
     69 H22          0.1080     4.3540     0.9750 ha         1 D7G       0.115000
     70 H23          0.7310     3.7380     3.3090 ha         1 D7G       0.114000
     71 H24         -0.5880     2.0150     4.5360 ha         1 D7G       0.115000
     72 H25         -2.5190     0.9030     3.4330 ha         1 D7G       0.114000
@<TRIPOS>BOND
     1     1     2 2   
     2     2     3 1   
     3     2     9 1   
     4     3     4 2   
     5     3     5 1   
     6     5     6 1   
     7     5    36 1   
     8     6     7 1   
     9     6     8 1   
    10     6    37 1   
    11     7     8 1   
    12     7    38 1   
    13     7    39 1   
    14     8    40 1   
    15     8    41 1   
    16     9    10 1   
    17     9    29 1   
    18     9    42 1   
    19    10    11 1   
    20    10    43 1   
    21    11    12 2   
    22    11    13 1   
    23    13    14 1   
    24    13    25 1   
    25    13    44 1   
    26    14    15 1   
    27    14    45 1   
    28    15    16 2   
    29    15    17 1   
    30    17    18 1   
    31    18    19 1   
    32    18    46 1   
    33    18    47 1   
    34    19    20 1   
    35    19    48 1   
    36    19    49 1   
    37    20    21 1   
    38    21    22 1   
    39    21    50 1   
    40    21    51 1   
    41    22    23 1   
    42    22    52 1   
    43    22    53 1   
    44    23    24 1   
    45    24    54 1   
    46    24    55 1   
    47    24    56 1   
    48    25    26 1   
    49    25    57 1   
    50    25    58 1   
    51    26    27 1   
    52    26    28 1   
    53    26    59 1   
    54    27    60 1   
    55    27    61 1   
    56    27    62 1   
    57    28    63 1   
    58    28    64 1   
    59    28    65 1   
    60    29    30 1   
    61    29    66 1   
    62    29    67 1   
    63    30    31 ar  
    64    30    35 ar  
    65    31    32 ar  
    66    31    68 1   
    67    32    33 ar  
    68    32    69 1   
    69    33    34 ar  
    70    33    70 1   
    71    34    35 ar  
    72    34    71 1   
    73    35    72 1   
@<TRIPOS>SUBSTRUCTURE
     1 D7G         1 TEMP              0 ****  ****    0 ROOT
