@<TRIPOS>MOLECULE
D7G
   72    73     1     0     0
SMALL
bcc


@<TRIPOS>ATOM
      1 O1          -3.5780    -1.1310    -1.4840 o          1 D7G      -0.495100
      2 C1          -3.6740    -0.7720    -0.3410 c          1 D7G       0.488100
      3 C2          -4.6450    -1.4680     0.6250 c          1 D7G       0.572100
      4 O2          -4.7150    -1.1200     1.7910 o          1 D7G      -0.580100
      5 N1          -5.3620    -2.4410     0.0640 ns         1 D7G      -0.526900
      6 C3          -6.3300    -3.1920     0.7950 cx         1 D7G       0.039700
      7 C4          -6.4770    -4.6410     0.4710 cx         1 D7G      -0.131900
      8 C5          -5.8660    -4.2240     1.7740 cx         1 D7G      -0.131900
      9 C6          -2.8930     0.3940     0.2360 c3         1 D7G       0.031700
     10 N2          -1.7110     0.6580    -0.5370 ns         1 D7G      -0.555900
     11 C7          -0.6590    -0.1730    -0.5160 c          1 D7G       0.661100
     12 O3          -0.6550    -1.2110     0.1260 o          1 D7G      -0.606100
     13 C8           0.5500     0.2550    -1.3410 c3         1 D7G       0.057700
     14 N3           1.7010     0.2000    -0.4700 ns         1 D7G      -0.563900
     15 C9           2.6700     1.1350    -0.4840 c          1 D7G       0.760100
     16 O4           2.6610     2.1460    -1.1560 o          1 D7G      -0.602000
     17 O5           3.6510     0.8080     0.3600 os         1 D7G      -0.423900
     18 C10          4.7620     1.7000     0.4440 c3         1 D7G       0.162400
     19 C11          5.7060     1.1770     1.4920 c3         1 D7G       0.131400
     20 O6           6.2190    -0.0660     1.0930 os         1 D7G      -0.388600
     21 C12          7.1470    -0.5900     2.0100 c3         1 D7G       0.137400
     22 C13          7.6160    -1.9430     1.5410 c3         1 D7G       0.136400
     23 O7           8.3310    -1.8090     0.3400 os         1 D7G      -0.395600
     24 C14          8.7930    -3.0410    -0.1490 c3         1 D7G       0.122700
     25 C15          0.7250    -0.6500    -2.5630 c3         1 D7G      -0.092400
     26 C16         -0.4370    -0.6500    -3.5570 c3         1 D7G      -0.063700
     27 C17         -0.7220     0.7400    -4.1190 c3         1 D7G      -0.085600
     28 C18         -0.1390    -1.6330    -4.6850 c3         1 D7G      -0.085600
     29 C19         -3.7960     1.6410     0.2700 c3         1 D7G      -0.037100
     30 C20         -3.0930     2.8120     0.8980 ca         1 D7G      -0.090300
     31 C21         -2.6020     3.8540     0.1170 ca         1 D7G      -0.123500
     32 C22         -1.9210     4.9170     0.6970 ca         1 D7G      -0.123500
     33 C23         -1.7270     4.9510     2.0700 ca         1 D7G      -0.123000
     34 C24         -2.2200     3.9190     2.8600 ca         1 D7G      -0.123500
     35 C25         -2.8970     2.8580     2.2770 ca         1 D7G      -0.123500
     36 HN1         -5.2450    -2.6200    -0.9220 hn         1 D7G       0.340500
     37 H3          -7.2320    -2.6430     1.0460 h1         1 D7G       0.089700
     38 H41         -7.4770    -5.0540     0.4720 hc         1 D7G       0.080700
     39 H42         -5.8210    -5.0560    -0.2840 hc         1 D7G       0.080700
     40 H51         -4.7980    -4.3560     1.8940 hc         1 D7G       0.080700
     41 H52         -6.4420    -4.3450     2.6810 hc         1 D7G       0.080700
     42 H6          -2.6080     0.1470     1.2620 h1         1 D7G       0.110700
     43 HN2         -1.6740     1.4960    -1.0950 hn         1 D7G       0.329500
     44 H8           0.4360     1.2900    -1.6650 h1         1 D7G       0.086700
     45 HN3          1.8470    -0.6460     0.0610 hn         1 D7G       0.345500
     46 H101         4.4360     2.7010     0.7340 h1         1 D7G       0.058700
     47 H102         5.2660     1.7740    -0.5230 h1         1 D7G       0.058700
     48 H111         5.1950     1.1040     2.4630 h1         1 D7G       0.032200
     49 H112         6.5060     1.9210     1.6110 h1         1 D7G       0.032200
     50 H121         6.6940    -0.7110     3.0040 h1         1 D7G       0.028200
     51 H122         8.0050     0.0870     2.1310 h1         1 D7G       0.028200
     52 H131         6.7550    -2.6150     1.4170 h1         1 D7G       0.030200
     53 H132         8.2460    -2.3790     2.3300 h1         1 D7G       0.030200
     54 H141         9.4700    -3.5370     0.5570 h1         1 D7G       0.027700
     55 H142         7.9710    -3.7340    -0.3670 h1         1 D7G       0.027700
     56 H143         9.3380    -2.8560    -1.0740 h1         1 D7G       0.027700
     57 H151         1.6380    -0.3300    -3.0740 hc         1 D7G       0.057700
     58 H152         0.9070    -1.6710    -2.2130 hc         1 D7G       0.057700
     59 H16         -1.3390    -0.9980    -3.0430 hc         1 D7G       0.062700
     60 H171         0.1620     1.1600    -4.6030 hc         1 D7G       0.032700
     61 H172        -1.5210     0.7010    -4.8610 hc         1 D7G       0.032700
     62 H173        -1.0390     1.4480    -3.3510 hc         1 D7G       0.032700
     63 H181         0.0230    -2.6420    -4.3010 hc         1 D7G       0.032700
     64 H182        -0.9640    -1.6780    -5.3980 hc         1 D7G       0.032700
     65 H183         0.7590    -1.3390    -5.2330 hc         1 D7G       0.032700
     66 H191        -4.1120     1.8900    -0.7460 hc         1 D7G       0.064700
     67 H192        -4.6990     1.3990     0.8310 hc         1 D7G       0.064700
     68 H21         -2.7610     3.8420    -0.9560 ha         1 D7G       0.132000
     69 H22         -1.5460     5.7190     0.0740 ha         1 D7G       0.133000
     70 H23         -1.2000     5.7800     2.5250 ha         1 D7G       0.132000
     71 H24         -2.0780     3.9420     3.9330 ha         1 D7G       0.133000
     72 H25         -3.2830     2.0590     2.9010 ha         1 D7G       0.132000
@<TRIPOS>BOND
     1     1     2 2   
     2     2     3 1   
     3     2     9 1   
     4     3     4 2   
     5     3     5 1   
     6     5     6 1   
     7     5    36 1   
     8     6     7 1   
     9     6     8 1   
    10     6    37 1   
    11     7     8 1   
    12     7    38 1   
    13     7    39 1   
    14     8    40 1   
    15     8    41 1   
    16     9    10 1   
    17     9    29 1   
    18     9    42 1   
    19    10    11 1   
    20    10    43 1   
    21    11    12 2   
    22    11    13 1   
    23    13    14 1   
    24    13    25 1   
    25    13    44 1   
    26    14    15 1   
    27    14    45 1   
    28    15    16 2   
    29    15    17 1   
    30    17    18 1   
    31    18    19 1   
    32    18    46 1   
    33    18    47 1   
    34    19    20 1   
    35    19    48 1   
    36    19    49 1   
    37    20    21 1   
    38    21    22 1   
    39    21    50 1   
    40    21    51 1   
    41    22    23 1   
    42    22    52 1   
    43    22    53 1   
    44    23    24 1   
    45    24    54 1   
    46    24    55 1   
    47    24    56 1   
    48    25    26 1   
    49    25    57 1   
    50    25    58 1   
    51    26    27 1   
    52    26    28 1   
    53    26    59 1   
    54    27    60 1   
    55    27    61 1   
    56    27    62 1   
    57    28    63 1   
    58    28    64 1   
    59    28    65 1   
    60    29    30 1   
    61    29    66 1   
    62    29    67 1   
    63    30    31 ar  
    64    30    35 ar  
    65    31    32 ar  
    66    31    68 1   
    67    32    33 ar  
    68    32    69 1   
    69    33    34 ar  
    70    33    70 1   
    71    34    35 ar  
    72    34    71 1   
    73    35    72 1   
@<TRIPOS>SUBSTRUCTURE
     1 D7G         1 TEMP              0 ****  ****    0 ROOT
