@<TRIPOS>MOLECULE
D7H
   61    65     1     0     0
SMALL
No Charge or Current Charge


@<TRIPOS>ATOM
      1 C10         43.0590    16.3640     9.2810 c6         1 D7H       0.222800
      2 C17         40.9040    17.7340    11.8600 ca         1 D7H      -0.092300
      3 C20         38.8300    16.4670    12.1800 ca         1 D7H      -0.098000
      4 C22         38.4390    17.3500    13.1950 ca         1 D7H      -0.109000
      5 C24         39.2770    18.4160    13.5550 ca         1 D7H      -0.089000
      6 C26         40.5110    18.6180    12.9020 ca         1 D7H      -0.088300
      7 C01         39.4380    14.8170     6.8440 c3         1 D7H      -0.170100
      8 C05         40.9680    14.9040     6.8500 c          1 D7H       0.608100
      9 O06         41.6190    13.9150     6.5300 o          1 D7H      -0.605100
     10 N07         41.6070    16.0920     7.3030 n          1 D7H      -0.225400
     11 C08         43.0170    16.0420     7.7600 c6         1 D7H       0.119700
     12 N13         42.2060    17.5340     9.6680 nh         1 D7H      -0.838400
     13 C14         42.2310    17.9220    11.1030 c3         1 D7H       0.275100
     14 C18         40.0540    16.6560    11.5200 ca         1 D7H      -0.102000
     15 C27         41.3920    19.7810    13.3620 c3         1 D7H       0.204900
     16 O30         41.2090    20.9200    12.5140 oh         1 D7H      -0.668000
     17 C32         41.2250    18.0430     8.7600 ca         1 D7H       0.323000
     18 C33         40.5180    19.2280     9.0500 ca         1 D7H      -0.161000
     19 C35         39.5200    19.7390     8.1870 cp         1 D7H      -0.008000
     20 C36         39.2490    19.0210     7.0010 ca         1 D7H      -0.133000
     21 C38         39.9500    17.8480     6.6870 ca         1 D7H      -0.092000
     22 C40         40.9660    17.3680     7.5370 ca         1 D7H      -0.101000
     23 C41         38.7720    20.9910     8.5270 cp         1 D7H      -0.113000
     24 C42         37.4470    21.2270     8.0820 ca         1 D7H       0.112400
     25 N44         36.7680    22.3500     8.3890 nb         1 D7H      -0.149000
     26 C45         37.4010    23.2740     9.1530 ca         1 D7H       0.069500
     27 N46         38.6640    23.1490     9.6290 nb         1 D7H      -0.149000
     28 C47         39.3360    22.0210     9.3200 ca         1 D7H       0.112400
     29 C49         36.6310    24.5410     9.4960 c          1 D7H       0.518600
     30 N50         37.2520    25.4740    10.2600 nt         1 D7H      -0.595000
     31 O53         35.4890    24.7550     9.1180 o          1 D7H      -0.572100
     32 C54         43.9280    16.9830     6.9440 cx         1 D7H      -0.139700
     33 C56         45.3840    16.6440     6.7280 cx         1 D7H      -0.123900
     34 C59         44.4100    16.5700     5.5730 cx         1 D7H      -0.123900
     35 H1          42.7120    15.4740     9.8250 h1         1 D7H       0.050700
     36 H2          44.1050    16.5350     9.5790 h1         1 D7H       0.050700
     37 H3          38.1850    15.6360    11.9020 ha         1 D7H       0.116000
     38 H4          37.4900    17.2060    13.7070 ha         1 D7H       0.118000
     39 H5          38.9660    19.0910    14.3500 ha         1 D7H       0.114000
     40 H6          39.0960    13.7800     6.9300 hc         1 D7H       0.066367
     41 H7          39.0050    15.4560     7.6210 hc         1 D7H       0.066367
     42 H8          39.0680    15.2250     5.8990 hc         1 D7H       0.066367
     43 H9          43.4200    15.0270     7.6420 h1         1 D7H       0.098700
     44 H10         42.9970    17.3380    11.6330 h1         1 D7H       0.060700
     45 H11         42.5550    18.9680    11.1650 h1         1 D7H       0.060700
     46 H12         40.3400    15.9610    10.7350 ha         1 D7H       0.120000
     47 H13         42.4450    19.4690    13.3670 h1         1 D7H       0.029700
     48 H14         41.1350    20.0400    14.3980 h1         1 D7H       0.029700
     49 H15         41.7540    21.6440    12.8920 ho         1 D7H       0.441000
     50 H16         40.7260    19.7570     9.9710 ha         1 D7H       0.133000
     51 H17         38.4960    19.3810     6.3050 ha         1 D7H       0.120000
     52 H18         39.7280    17.3440     5.7510 ha         1 D7H       0.120000
     53 H19         36.9120    20.4960     7.4790 h4         1 D7H       0.033600
     54 H20         40.3520    21.9520     9.7040 h4         1 D7H       0.033600
     55 H21         36.7630    26.3240    10.5030 hn         1 D7H       0.330000
     56 H22         38.1960    25.3160    10.5830 hn         1 D7H       0.330000
     57 H23         43.6860    18.0350     7.0790 hc         1 D7H       0.089700
     58 H24         45.7610    15.7070     7.1330 hc         1 D7H       0.074950
     59 H25         46.1010    17.4620     6.7360 hc         1 D7H       0.074950
     60 H26         44.1300    15.5850     5.2070 hc         1 D7H       0.074950
     61 H27         44.4720    17.3390     4.8060 hc         1 D7H       0.074950
@<TRIPOS>BOND
     1     1    11 1   
     2     1    12 1   
     3     1    35 1   
     4     1    36 1   
     5     2     6 ar  
     6     2    13 1   
     7     2    14 ar  
     8     3     4 ar  
     9     3    14 ar  
    10     3    37 1   
    11     4     5 ar  
    12     4    38 1   
    13     5     6 ar  
    14     5    39 1   
    15     6    15 1   
    16     7     8 1   
    17     7    40 1   
    18     7    41 1   
    19     7    42 1   
    20     8     9 2   
    21     8    10 1   
    22    10    11 1   
    23    10    22 1   
    24    11    32 1   
    25    11    43 1   
    26    12    13 1   
    27    12    17 1   
    28    13    44 1   
    29    13    45 1   
    30    14    46 1   
    31    15    16 1   
    32    15    47 1   
    33    15    48 1   
    34    16    49 1   
    35    17    18 ar  
    36    17    22 ar  
    37    18    19 ar  
    38    18    50 1   
    39    19    20 ar  
    40    19    23 1   
    41    20    21 ar  
    42    20    51 1   
    43    21    22 ar  
    44    21    52 1   
    45    23    24 ar  
    46    23    28 ar  
    47    24    25 ar  
    48    24    53 1   
    49    25    26 ar  
    50    26    27 ar  
    51    26    29 1   
    52    27    28 ar  
    53    28    54 1   
    54    29    30 1   
    55    29    31 2   
    56    30    55 1   
    57    30    56 1   
    58    32    33 1   
    59    32    34 1   
    60    32    57 1   
    61    33    34 1   
    62    33    58 1   
    63    33    59 1   
    64    34    60 1   
    65    34    61 1   
@<TRIPOS>SUBSTRUCTURE
     1 D7H         1 TEMP              0 ****  ****    0 ROOT
