@<TRIPOS>MOLECULE
D7H
   61    65     1     0     0
SMALL
abcg2


@<TRIPOS>ATOM
      1 C10         42.6180    16.2090     9.3450 c6         1 D7H       0.222800
      2 C17         40.9310    17.8410    11.8930 ca         1 D7H      -0.092300
      3 C20         38.9230    16.6480    12.5370 ca         1 D7H      -0.098000
      4 C22         38.8310    17.4060    13.6980 ca         1 D7H      -0.109000
      5 C24         39.7900    18.3830    13.9510 ca         1 D7H      -0.089000
      6 C26         40.8390    18.6110    13.0630 ca         1 D7H      -0.088300
      7 C01         39.4780    14.9720     6.3280 c3         1 D7H      -0.170100
      8 C05         40.9520    14.9910     6.6530 c          1 D7H       0.608100
      9 O06         41.6420    13.9930     6.4410 o          1 D7H      -0.605100
     10 N07         41.4950    16.1140     7.2190 n          1 D7H      -0.225400
     11 C08         42.8270    16.0310     7.8450 c6         1 D7H       0.119700
     12 N13         41.9150    17.4510     9.6230 nh         1 D7H      -0.838400
     13 C14         42.0810    18.0660    10.9230 c3         1 D7H       0.275100
     14 C18         39.9680    16.8680    11.6450 ca         1 D7H      -0.102000
     15 C27         41.8360    19.6970    13.3630 c3         1 D7H       0.204900
     16 O30         41.5440    20.8350    12.5300 oh         1 D7H      -0.668000
     17 C32         41.0300    17.9710     8.7130 ca         1 D7H       0.323000
     18 C33         40.3130    19.1480     8.9700 ca         1 D7H      -0.161000
     19 C35         39.4660    19.7200     8.0200 cp         1 D7H      -0.008000
     20 C36         39.3410    19.1190     6.7640 ca         1 D7H      -0.133000
     21 C38         40.0300    17.9460     6.4980 ca         1 D7H      -0.092000
     22 C40         40.8180    17.3320     7.4640 ca         1 D7H      -0.101000
     23 C41         38.7160    20.9400     8.3540 cp         1 D7H      -0.113000
     24 C42         37.4540    21.2140     7.8190 ca         1 D7H       0.112400
     25 N44         36.7560    22.3030     8.1300 nb         1 D7H      -0.149000
     26 C45         37.3090    23.1430     8.9990 ca         1 D7H       0.069500
     27 N46         38.5050    22.9900     9.5680 nb         1 D7H      -0.149000
     28 C47         39.2010    21.9050     9.2430 ca         1 D7H       0.112400
     29 C49         36.5070    24.3750     9.3790 c          1 D7H       0.518600
     30 N50         37.1190    25.1820    10.2570 nt         1 D7H      -0.595000
     31 O53         35.3930    24.5870     8.9090 o          1 D7H      -0.572100
     32 C54         43.7890    17.0250     7.2470 cx         1 D7H      -0.139700
     33 C56         45.2520    16.6860     7.2230 cx         1 D7H      -0.123900
     34 C59         44.4570    16.6960     5.9430 cx         1 D7H      -0.123900
     35 H1          42.0690    15.3430     9.7320 h1         1 D7H       0.050700
     36 H2          43.5870    16.2410     9.8450 h1         1 D7H       0.050700
     37 H3          38.1840    15.8870    12.3220 ha         1 D7H       0.116000
     38 H4          38.0220    17.2440    14.3980 ha         1 D7H       0.118000
     39 H5          39.7250    18.9810    14.8520 ha         1 D7H       0.114000
     40 H6          39.1440    13.9400     6.4160 hc         1 D7H       0.066367
     41 H7          38.8900    15.6120     6.9800 hc         1 D7H       0.066367
     42 H8          39.3160    15.2910     5.2970 hc         1 D7H       0.066367
     43 H9          43.1920    15.0240     7.6640 h1         1 D7H       0.098700
     44 H10         42.9970    17.6620    11.3570 h1         1 D7H       0.060700
     45 H11         42.2470    19.1370    10.8020 h1         1 D7H       0.060700
     46 H12         40.0280    16.2790    10.7390 ha         1 D7H       0.120000
     47 H13         42.8560    19.3510    13.1720 h1         1 D7H       0.029700
     48 H14         41.7660    19.9770    14.4170 h1         1 D7H       0.029700
     49 H15         42.2780    21.4570    12.6080 ho         1 D7H       0.441000
     50 H16         40.3860    19.6050     9.9440 ha         1 D7H       0.133000
     51 H17         38.7370    19.5710     5.9900 ha         1 D7H       0.120000
     52 H18         39.9580    17.4950     5.5190 ha         1 D7H       0.120000
     53 H19         36.9870    20.5190     7.1300 h4         1 D7H       0.033600
     54 H20         40.1800    21.8020     9.6950 h4         1 D7H       0.033600
     55 H21         36.6620    26.0240    10.5680 hn         1 D7H       0.330000
     56 H22         38.0360    24.9480    10.6040 hn         1 D7H       0.330000
     57 H23         43.5400    18.0660     7.4130 hc         1 D7H       0.089700
     58 H24         45.5480    15.7240     7.6240 hc         1 D7H       0.074950
     59 H25         45.9620    17.4840     7.3930 hc         1 D7H       0.074950
     60 H26         44.2190    15.7410     5.4920 hc         1 D7H       0.074950
     61 H27         44.6260    17.5010     5.2400 hc         1 D7H       0.074950
@<TRIPOS>BOND
     1     1    11 1   
     2     1    12 1   
     3     1    35 1   
     4     1    36 1   
     5     2     6 ar  
     6     2    13 1   
     7     2    14 ar  
     8     3     4 ar  
     9     3    14 ar  
    10     3    37 1   
    11     4     5 ar  
    12     4    38 1   
    13     5     6 ar  
    14     5    39 1   
    15     6    15 1   
    16     7     8 1   
    17     7    40 1   
    18     7    41 1   
    19     7    42 1   
    20     8     9 2   
    21     8    10 1   
    22    10    11 1   
    23    10    22 1   
    24    11    32 1   
    25    11    43 1   
    26    12    13 1   
    27    12    17 1   
    28    13    44 1   
    29    13    45 1   
    30    14    46 1   
    31    15    16 1   
    32    15    47 1   
    33    15    48 1   
    34    16    49 1   
    35    17    18 ar  
    36    17    22 ar  
    37    18    19 ar  
    38    18    50 1   
    39    19    20 ar  
    40    19    23 1   
    41    20    21 ar  
    42    20    51 1   
    43    21    22 ar  
    44    21    52 1   
    45    23    24 ar  
    46    23    28 ar  
    47    24    25 ar  
    48    24    53 1   
    49    25    26 ar  
    50    26    27 ar  
    51    26    29 1   
    52    27    28 ar  
    53    28    54 1   
    54    29    30 1   
    55    29    31 2   
    56    30    55 1   
    57    30    56 1   
    58    32    33 1   
    59    32    34 1   
    60    32    57 1   
    61    33    34 1   
    62    33    58 1   
    63    33    59 1   
    64    34    60 1   
    65    34    61 1   
@<TRIPOS>SUBSTRUCTURE
     1 D7H         1 TEMP              0 ****  ****    0 ROOT
