@<TRIPOS>MOLECULE
D7I
   54    55     1     0     0
SMALL
bcc


@<TRIPOS>ATOM
      1 C1          -8.8250    28.2980   -20.2480 ca         1 D7I       0.018600
      2 C8          -8.3770    24.8670   -17.8050 ca         1 D7I       0.018600
      3 C2          -8.9690    28.5040   -21.6240 ca         1 D7I       0.148100
      4 C9          -8.0650    23.5220   -17.5960 ca         1 D7I       0.148100
      5 C3         -10.1650    29.0720   -22.0720 ca         1 D7I      -0.283000
      6 C10         -7.4140    23.1940   -16.4030 ca         1 D7I      -0.283000
      7 C4         -11.1840    29.4670   -21.2060 ca         1 D7I       0.151100
      8 C11         -7.0520    24.1420   -15.4480 ca         1 D7I       0.151100
      9 C5         -11.0130    29.2850   -19.8200 ca         1 D7I       0.159600
     10 C12         -7.3650    25.4990   -15.6780 ca         1 D7I       0.159600
     11 C6          -9.8300    28.7010   -19.3760 ca         1 D7I      -0.175500
     12 C13         -8.0270    25.8240   -16.8590 ca         1 D7I      -0.175500
     13 C7          -7.2370    26.4960   -20.0480 c3         1 D7I       0.118900
     14 C14         -8.3040    25.4220   -20.1030 c3         1 D7I       0.118900
     15 O1          -7.6760    27.7950   -19.6910 os         1 D7I      -0.310400
     16 O3          -9.0680    25.2700   -18.9220 os         1 D7I      -0.310400
     17 O2          -7.9530    28.1920   -22.4450 os         1 D7I      -0.515500
     18 O6          -8.3500    22.5980   -18.5340 os         1 D7I      -0.515500
     19 O21         -6.7350    26.7740   -24.1080 o          1 D7I      -0.957000
     20 O22         -9.2000    26.2280   -23.5840 o          1 D7I      -0.957000
     21 O23         -8.6050    28.3190   -24.9530 o          1 D7I      -0.957000
     22 O4         -12.3060    30.0610   -21.6510 os         1 D7I      -0.510500
     23 O10         -6.4580    23.7930   -14.2920 os         1 D7I      -0.510500
     24 O41        -14.6040    30.1590   -22.6410 o          1 D7I      -0.963333
     25 O42        -13.5080    27.8590   -22.2510 o          1 D7I      -0.963333
     26 O43        -12.6630    29.3900   -24.1330 o          1 D7I      -0.963333
     27 O5         -11.9930    29.6560   -18.9730 os         1 D7I      -0.489500
     28 O14         -7.0350    26.4050   -14.7430 os         1 D7I      -0.489500
     29 O51        -13.1550    31.2650   -17.4360 o          1 D7I      -0.942333
     30 O52        -10.9610    30.1950   -16.6570 o          1 D7I      -0.942333
     31 O53        -10.9290    31.9690   -18.5200 o          1 D7I      -0.942333
     32 P2          -8.1570    27.2830   -23.9290 p5         1 D7I       1.311900
     33 P1          -9.6250    21.4250   -18.2750 p5         1 D7I       1.311900
     34 P4         -13.3730    29.2760   -22.7880 p5         1 D7I       1.314400
     35 P3          -4.8440    23.1250   -14.2480 p5         1 D7I       1.314400
     36 P5         -11.7190    30.9000   -17.7770 p5         1 D7I       1.283400
     37 P6          -6.5470    28.0380   -15.1220 p5         1 D7I       1.283400
     38 O7          -9.0700    20.4660   -17.2290 o          1 D7I      -0.957000
     39 O8          -9.7320    20.8500   -19.6790 o          1 D7I      -0.957000
     40 O9         -10.8070    22.2640   -17.8120 o          1 D7I      -0.957000
     41 O11         -4.5730    23.2200   -12.7540 o          1 D7I      -0.963333
     42 O12         -4.0250    24.0530   -15.1330 o          1 D7I      -0.963333
     43 O13         -4.9900    21.7010   -14.7780 o          1 D7I      -0.963333
     44 O15         -6.0430    28.4780   -13.7570 o          1 D7I      -0.942333
     45 O16         -5.4850    27.8670   -16.1970 o          1 D7I      -0.942333
     46 O17         -7.8290    28.7280   -15.5810 o          1 D7I      -0.942333
     47 H3         -10.2950    29.2420   -23.1310 ha         1 D7I       0.121000
     48 H1          -7.1730    22.1570   -16.2150 ha         1 D7I       0.121000
     49 H6          -9.6840    28.5630   -18.3110 ha         1 D7I       0.187500
     50 H2          -8.2900    26.8580   -17.0380 ha         1 D7I       0.187500
     51 H71         -6.7350    26.4930   -21.0210 h1         1 D7I       0.027700
     52 H72         -6.4870    26.2400   -19.2960 h1         1 D7I       0.027700
     53 H7'2        -9.0150    25.6350   -20.9040 h1         1 D7I       0.027700
     54 H7'1        -7.7970    24.4860   -20.3700 h1         1 D7I       0.027700
@<TRIPOS>BOND
     1     1     3 ar  
     2     1    11 ar  
     3     1    15 1   
     4     2     4 ar  
     5     2    12 ar  
     6     2    16 1   
     7     3     5 ar  
     8     3    17 1   
     9     4     6 ar  
    10     4    18 1   
    11     5     7 ar  
    12     5    47 1   
    13     6     8 ar  
    14     6    48 1   
    15     7     9 ar  
    16     7    22 1   
    17     8    10 ar  
    18     8    23 1   
    19     9    11 ar  
    20     9    27 1   
    21    10    12 ar  
    22    10    28 1   
    23    11    49 1   
    24    12    50 1   
    25    13    14 1   
    26    13    15 1   
    27    13    51 1   
    28    13    52 1   
    29    14    16 1   
    30    14    53 1   
    31    14    54 1   
    32    17    32 1   
    33    18    33 1   
    34    19    32 1   
    35    20    32 1   
    36    21    32 1   
    37    22    34 1   
    38    23    35 1   
    39    24    34 1   
    40    25    34 1   
    41    26    34 1   
    42    27    36 1   
    43    28    37 1   
    44    29    36 1   
    45    30    36 1   
    46    31    36 1   
    47    33    38 1   
    48    33    39 1   
    49    33    40 1   
    50    35    41 1   
    51    35    42 1   
    52    35    43 1   
    53    37    44 1   
    54    37    45 1   
    55    37    46 1   
@<TRIPOS>SUBSTRUCTURE
     1 D7I         1 TEMP              0 ****  ****    0 ROOT
