@<TRIPOS>MOLECULE
D7I
   54    55     1     0     0
SMALL
No Charge or Current Charge


@<TRIPOS>ATOM
      1 C1          -9.4780    28.5710   -20.3690 ca         1 D7I       0.018600
      2 C8          -8.1190    25.0040   -17.1250 ca         1 D7I       0.018600
      3 C2          -9.6950    28.1520   -21.7210 ca         1 D7I       0.148100
      4 C9          -7.7670    23.6300   -17.2120 ca         1 D7I       0.148100
      5 C3         -10.7790    28.7030   -22.4450 ca         1 D7I      -0.265000
      6 C10         -6.8180    23.1040   -16.3050 ca         1 D7I      -0.265000
      7 C4         -11.6330    29.6660   -21.8600 ca         1 D7I       0.151100
      8 C11         -6.2350    23.9280   -15.3130 ca         1 D7I       0.151100
      9 C5         -11.3940    30.0990   -20.5270 ca         1 D7I       0.159600
     10 C12         -6.6180    25.2960   -15.2170 ca         1 D7I       0.159600
     11 C6         -10.3190    29.5450   -19.8030 ca         1 D7I      -0.157500
     12 C13         -7.5610    25.8180   -16.1260 ca         1 D7I      -0.157500
     13 C7          -7.7780    26.8460   -19.6490 c3         1 D7I       0.142100
     14 C14         -8.7780    25.6850   -19.3960 c3         1 D7I       0.142100
     15 O1          -8.4530    28.1240   -19.5380 os         1 D7I      -0.333600
     16 O3          -9.0450    25.5770   -17.9780 os         1 D7I      -0.333600
     17 O2          -8.8360    27.2440   -22.3110 os         1 D7I      -0.515500
     18 O6          -8.3910    22.8410   -18.1630 os         1 D7I      -0.515500
     19 O21         -7.5400    25.7790   -23.9140 o          1 D7I      -0.957000
     20 O22         -9.9350    25.9190   -24.2080 o          1 D7I      -0.957000
     21 O23         -8.5100    27.8140   -24.7860 o          1 D7I      -0.957000
     22 O4         -12.7020    30.2210   -22.5480 os         1 D7I      -0.510500
     23 O10         -5.3000    23.4430   -14.4100 os         1 D7I      -0.510500
     24 O41        -14.4830    30.8120   -24.2420 o          1 D7I      -0.963333
     25 O42        -13.6870    28.5310   -24.1990 o          1 D7I      -0.963333
     26 O43        -12.2680    30.3160   -25.0680 o          1 D7I      -0.963333
     27 O5         -12.2270    31.0580   -19.9720 os         1 D7I      -0.489500
     28 O14         -6.0510    26.0830   -14.2260 os         1 D7I      -0.489500
     29 O51        -13.2700    32.7620   -18.4150 o          1 D7I      -0.942333
     30 O52        -12.3370    30.7480   -17.4440 o          1 D7I      -0.942333
     31 O53        -10.8660    32.4660   -18.3390 o          1 D7I      -0.942333
     32 P2          -8.7170    26.6900   -23.8280 p5         1 D7I       1.311900
     33 P1          -8.2970    21.2540   -18.4700 p5         1 D7I       1.311900
     34 P4         -13.2810    29.9550   -24.0360 p5         1 D7I       1.314400
     35 P3          -4.6260    21.9810   -14.2400 p5         1 D7I       1.314400
     36 P5         -12.1680    31.7650   -18.5190 p5         1 D7I       1.283400
     37 P6          -6.3190    27.6330   -13.8540 p5         1 D7I       1.283400
     38 O7          -6.9140    20.8760   -18.8790 o          1 D7I      -0.957000
     39 O8          -9.2250    20.9270   -19.5900 o          1 D7I      -0.957000
     40 O9          -8.7050    20.4610   -17.2760 o          1 D7I      -0.957000
     41 O11         -3.6510    22.0320   -13.1130 o          1 D7I      -0.963333
     42 O12         -3.8920    21.5900   -15.4780 o          1 D7I      -0.963333
     43 O13         -5.6600    20.9570   -13.9190 o          1 D7I      -0.963333
     44 O15         -5.4830    28.0050   -12.6780 o          1 D7I      -0.942333
     45 O16         -5.9510    28.5080   -15.0020 o          1 D7I      -0.942333
     46 O17         -7.7530    27.8410   -13.5100 o          1 D7I      -0.942333
     47 H3         -10.9560    28.3890   -23.4660 ha         1 D7I       0.103000
     48 H1          -6.5400    22.0590   -16.3660 ha         1 D7I       0.103000
     49 H6         -10.1240    29.8600   -18.7840 ha         1 D7I       0.169500
     50 H2          -7.8660    26.8580   -16.0750 ha         1 D7I       0.169500
     51 H71         -7.2900    26.7280   -20.6220 h1         1 D7I       0.027700
     52 H72         -6.9750    26.7880   -18.9030 h1         1 D7I       0.027700
     53 H7'2        -9.7090    25.8740   -19.9450 h1         1 D7I       0.027700
     54 H7'1        -8.3490    24.7550   -19.7880 h1         1 D7I       0.027700
@<TRIPOS>BOND
     1     1     3 ar  
     2     1    11 ar  
     3     1    15 1   
     4     2     4 ar  
     5     2    12 ar  
     6     2    16 1   
     7     3     5 ar  
     8     3    17 1   
     9     4     6 ar  
    10     4    18 1   
    11     5     7 ar  
    12     5    47 1   
    13     6     8 ar  
    14     6    48 1   
    15     7     9 ar  
    16     7    22 1   
    17     8    10 ar  
    18     8    23 1   
    19     9    11 ar  
    20     9    27 1   
    21    10    12 ar  
    22    10    28 1   
    23    11    49 1   
    24    12    50 1   
    25    13    14 1   
    26    13    15 1   
    27    13    51 1   
    28    13    52 1   
    29    14    16 1   
    30    14    53 1   
    31    14    54 1   
    32    17    32 1   
    33    18    33 1   
    34    19    32 1   
    35    20    32 1   
    36    21    32 1   
    37    22    34 1   
    38    23    35 1   
    39    24    34 1   
    40    25    34 1   
    41    26    34 1   
    42    27    36 1   
    43    28    37 1   
    44    29    36 1   
    45    30    36 1   
    46    31    36 1   
    47    33    38 1   
    48    33    39 1   
    49    33    40 1   
    50    35    41 1   
    51    35    42 1   
    52    35    43 1   
    53    37    44 1   
    54    37    45 1   
    55    37    46 1   
@<TRIPOS>SUBSTRUCTURE
     1 D7I         1 TEMP              0 ****  ****    0 ROOT
