@<TRIPOS>MOLECULE
D7J
   72    73     1     0     0
SMALL
No Charge or Current Charge


@<TRIPOS>ATOM
      1 C01         -2.3250     5.1650     0.4780 c3         1 D7J      -0.092600
      2 C02         -2.8490     3.8820    -0.1950 c3         1 D7J       0.179500
      3 C03         -2.6600     3.9260    -1.7280 c3         1 D7J      -0.092600
      4 C05         -2.6860     1.3570     0.0770 c3         1 D7J       0.116500
      5 C06         -1.7600     0.2580     0.6580 c3         1 D7J       0.045600
      6 C08          0.6980    -1.1550     0.7640 c3         1 D7J       0.025600
      7 C09          2.1440    -1.4090     0.2810 c3         1 D7J       0.137700
      8 C10          2.7750    -2.6500     0.9590 c3         1 D7J      -0.053100
      9 C11          4.2060    -2.9180     0.5010 ca         1 D7J      -0.082300
     10 C12          5.2980    -2.4880     1.2820 ca         1 D7J      -0.099000
     11 C13          6.6150    -2.7130     0.8450 ca         1 D7J      -0.107000
     12 C14          6.8490    -3.3710    -0.3740 ca         1 D7J      -0.107000
     13 C15          5.7650    -3.8040    -1.1560 ca         1 D7J      -0.107000
     14 C16          4.4480    -3.5780    -0.7200 ca         1 D7J      -0.099000
     15 C21          5.6910     1.9350    -0.4740 c3         1 D7J       0.224000
     16 C22          5.2040     2.6470    -1.7630 c3         1 D7J      -0.108100
     17 C23          6.8210     0.9060    -0.7360 c3         1 D7J      -0.108100
     18 C24          6.1630     2.9830     0.5590 c3         1 D7J      -0.108100
     19 C25         -4.1470     1.1390     0.5940 c          1 D7J       0.557100
     20 C29         -6.8240    -0.8170    -0.1390 ca         1 D7J      -0.167300
     21 C30         -6.5060    -1.6250     0.9680 ca         1 D7J      -0.058000
     22 C31         -6.8160    -2.9930     0.9030 ca         1 D7J      -0.167000
     23 C32         -7.4280    -3.5040    -0.2540 ca         1 D7J       0.339900
     24 C34         -7.4370    -1.4150    -1.2580 ca         1 D7J       0.341900
     25 N04         -2.1420     2.7260     0.3900 n7         1 D7J      -0.851400
     26 N17          2.9850    -0.2240     0.4830 ns         1 D7J      -0.496900
     27 N27         -5.0940     0.9160    -0.3850 ns         1 D7J      -0.499900
     28 N33         -7.7370    -2.7340    -1.3220 nb         1 D7J      -0.664000
     29 O19          4.0460    -0.1890    -1.5490 o          1 D7J      -0.542000
     30 O20          4.5770     1.2750     0.1710 os         1 D7J      -0.478100
     31 O26         -4.4410     1.1730     1.7830 o          1 D7J      -0.608100
     32 S07         -0.1030     0.2260    -0.1750 ss         1 D7J      -0.346000
     33 H1          -2.8460     6.0460     0.0840 hc         1 D7J       0.039700
     34 H2          -2.4920     5.1320     1.5610 hc         1 D7J       0.039700
     35 H3          -1.2500     5.2930     0.2970 hc         1 D7J       0.039700
     36 H4          -3.9240     3.8160     0.0190 h1         1 D7J       0.023700
     37 H5          -3.1370     3.0670    -2.2130 hc         1 D7J       0.039700
     38 H6          -3.1160     4.8330    -2.1430 hc         1 D7J       0.039700
     39 H7          -1.5960     3.9280    -1.9910 hc         1 D7J       0.039700
     40 H8          -2.7080     1.2010    -1.0100 h1         1 D7J       0.078700
     41 H9          -1.6230     0.4170     1.7350 h1         1 D7J       0.062700
     42 H10         -2.2330    -0.7220     0.5170 h1         1 D7J       0.062700
     43 H11          0.1000    -2.0650     0.6220 h1         1 D7J       0.059200
     44 H12          0.7010    -0.9090     1.8330 h1         1 D7J       0.059200
     45 H13          2.0920    -1.6150    -0.7970 h1         1 D7J       0.096700
     46 H14          2.7490    -2.5150     2.0470 hc         1 D7J       0.050700
     47 H15          2.1500    -3.5260     0.7480 hc         1 D7J       0.050700
     48 H16          5.1260    -1.9710     2.2230 ha         1 D7J       0.109000
     49 H17          7.4530    -2.3750     1.4500 ha         1 D7J       0.112000
     50 H18          7.8680    -3.5430    -0.7130 ha         1 D7J       0.111000
     51 H19          5.9450    -4.3110    -2.1010 ha         1 D7J       0.112000
     52 H20          3.6140    -3.9100    -1.3350 ha         1 D7J       0.109000
     53 H21          4.2920     3.2240    -1.5680 hc         1 D7J       0.048922
     54 H22          5.9710     3.3400    -2.1290 hc         1 D7J       0.048922
     55 H23          4.9990     1.9370    -2.5710 hc         1 D7J       0.048922
     56 H24          7.7460     1.4190    -1.0220 hc         1 D7J       0.048922
     57 H25          7.0260     0.3160     0.1650 hc         1 D7J       0.048922
     58 H26          6.5680     0.2160    -1.5480 hc         1 D7J       0.048922
     59 H27          5.3600     3.6940     0.7880 hc         1 D7J       0.048922
     60 H28          6.4670     2.4980     1.4940 hc         1 D7J       0.048922
     61 H29          7.0190     3.5500     0.1760 hc         1 D7J       0.048922
     62 H30         -7.1030     1.1780    -0.9070 h1         1 D7J       0.068700
     63 H31         -6.8030     1.1040     0.8350 h1         1 D7J       0.068700
     64 H32         -6.0330    -1.2050     1.8540 ha         1 D7J       0.129000
     65 H33         -6.5880    -3.6540     1.7350 ha         1 D7J       0.125000
     66 H34         -7.6780    -4.5620    -0.3280 h4         1 D7J       0.020100
     67 H35         -7.6970    -0.8210    -2.1330 h4         1 D7J       0.016100
     68 H36         -2.1630     2.8370     1.4110 hn         1 D7J       0.435000
     69 H38          2.9640     0.2500     1.3740 hn         1 D7J       0.319500
     70 H39         -4.7730     0.9140    -1.3470 hn         1 D7J       0.316500
     71 C18          3.8850     0.2550    -0.4240 c          1 D7J       0.657100
     72 C28         -6.5140     0.6700    -0.1310 c3         1 D7J       0.147300
@<TRIPOS>BOND
     1     1     2 1   
     2     1    33 1   
     3     1    34 1   
     4     1    35 1   
     5     2     3 1   
     6     2    25 1   
     7     2    36 1   
     8     3    37 1   
     9     3    38 1   
    10     3    39 1   
    11     4     5 1   
    12     4    19 1   
    13     4    25 1   
    14     4    40 1   
    15     5    32 1   
    16     5    41 1   
    17     5    42 1   
    18     6     7 1   
    19     6    32 1   
    20     6    43 1   
    21     6    44 1   
    22     7     8 1   
    23     7    26 1   
    24     7    45 1   
    25     8     9 1   
    26     8    46 1   
    27     8    47 1   
    28     9    10 ar  
    29     9    14 ar  
    30    10    11 ar  
    31    10    48 1   
    32    11    12 ar  
    33    11    49 1   
    34    12    13 ar  
    35    12    50 1   
    36    13    14 ar  
    37    13    51 1   
    38    14    52 1   
    39    15    16 1   
    40    15    17 1   
    41    15    18 1   
    42    15    30 1   
    43    16    53 1   
    44    16    54 1   
    45    16    55 1   
    46    17    56 1   
    47    17    57 1   
    48    17    58 1   
    49    18    59 1   
    50    18    60 1   
    51    18    61 1   
    52    19    27 1   
    53    19    31 2   
    54    20    21 ar  
    55    20    24 ar  
    56    20    72 1   
    57    21    22 ar  
    58    21    64 1   
    59    22    23 ar  
    60    22    65 1   
    61    23    28 ar  
    62    23    66 1   
    63    24    28 ar  
    64    24    67 1   
    65    25    68 1   
    66    26    69 1   
    67    26    71 1   
    68    27    70 1   
    69    27    72 1   
    70    29    71 2   
    71    30    71 1   
    72    62    72 1   
    73    63    72 1   
@<TRIPOS>SUBSTRUCTURE
     1 D7J         1 TEMP              0 ****  ****    0 ROOT
