@<TRIPOS>MOLECULE
D7J
   72    73     1     0     0
SMALL
abcg2


@<TRIPOS>ATOM
      1 C01         -2.3750     5.2830     0.4960 c3         1 D7J      -0.092600
      2 C02         -2.5340     4.0080    -0.3190 c3         1 D7J       0.179500
      3 C03         -1.7090     4.0840    -1.5970 c3         1 D7J      -0.092600
      4 C05         -2.5590     1.5850     0.0480 c3         1 D7J       0.116500
      5 C06         -1.8510     0.4810     0.8300 c3         1 D7J       0.045600
      6 C08          0.5020    -0.9590     1.1750 c3         1 D7J       0.025600
      7 C09          1.8630    -1.2640     0.5600 c3         1 D7J       0.137700
      8 C10          2.4170    -2.5930     1.0990 c3         1 D7J      -0.053100
      9 C11          3.7350    -2.9390     0.4700 ca         1 D7J      -0.082300
     10 C12          4.9340    -2.5380     1.0550 ca         1 D7J      -0.099000
     11 C13          6.1500    -2.8050     0.4410 ca         1 D7J      -0.107000
     12 C14          6.1850    -3.4820    -0.7700 ca         1 D7J      -0.107000
     13 C15          4.9970    -3.8930    -1.3600 ca         1 D7J      -0.107000
     14 C16          3.7840    -3.6200    -0.7440 ca         1 D7J      -0.099000
     15 C21          5.3960     1.9400    -0.4340 c3         1 D7J       0.224000
     16 C22          4.6730     2.9390    -1.3300 c3         1 D7J      -0.108100
     17 C23          6.3080     1.0150    -1.2340 c3         1 D7J      -0.108100
     18 C24          6.2140     2.6870     0.6130 c3         1 D7J      -0.108100
     19 C25         -4.0700     1.3830     0.2260 c          1 D7J       0.557100
     20 C29         -6.2190    -1.1800    -0.3390 ca         1 D7J      -0.167300
     21 C30         -5.7360    -1.6780     0.8670 ca         1 D7J      -0.058000
     22 C31         -5.9150    -3.0190     1.1630 ca         1 D7J      -0.167000
     23 C32         -6.5730    -3.8200     0.2390 ca         1 D7J       0.339900
     24 C34         -6.8570    -2.0740    -1.1880 ca         1 D7J       0.341900
     25 N04         -2.1050     2.8760     0.4960 n7         1 D7J      -0.851400
     26 N17          2.7850    -0.1800     0.7970 ns         1 D7J      -0.496900
     27 N27         -4.6680     0.6780    -0.7460 ns         1 D7J      -0.499900
     28 N33         -7.0370    -3.3620    -0.9150 nb         1 D7J      -0.664000
     29 O19          3.4290     0.1300    -1.3610 o          1 D7J      -0.542000
     30 O20          4.4510     1.1850     0.3640 os         1 D7J      -0.478100
     31 O26         -4.6500     1.8160     1.2120 o          1 D7J      -0.608100
     32 S07         -0.0580     0.6810     0.6250 ss         1 D7J      -0.346000
     33 H1          -2.6840     6.1530    -0.0830 hc         1 D7J       0.039700
     34 H2          -2.9860     5.2550     1.4010 hc         1 D7J       0.039700
     35 H3          -1.3340     5.4260     0.7930 hc         1 D7J       0.039700
     36 H4          -3.5950     3.9240    -0.6020 h1         1 D7J       0.023700
     37 H5          -1.7960     3.1810    -2.2030 hc         1 D7J       0.039700
     38 H6          -2.0390     4.9200    -2.2150 hc         1 D7J       0.039700
     39 H7          -0.6530     4.2270    -1.3600 hc         1 D7J       0.039700
     40 H8          -2.2950     1.4680    -1.0080 h1         1 D7J       0.078700
     41 H9          -2.1200     0.5310     1.8870 h1         1 D7J       0.062700
     42 H10         -2.1520    -0.4980     0.4520 h1         1 D7J       0.062700
     43 H11         -0.2150    -1.7160     0.8530 h1         1 D7J       0.059200
     44 H12          0.5510    -0.9930     2.2660 h1         1 D7J       0.059200
     45 H13          1.7390    -1.3490    -0.5200 h1         1 D7J       0.096700
     46 H14          2.5220    -2.5210     2.1850 hc         1 D7J       0.050700
     47 H15          1.6820    -3.3780     0.9050 hc         1 D7J       0.050700
     48 H16          4.9180    -2.0130     2.0030 ha         1 D7J       0.109000
     49 H17          7.0720    -2.4840     0.9090 ha         1 D7J       0.112000
     50 H18          7.1330    -3.6910    -1.2500 ha         1 D7J       0.111000
     51 H19          5.0140    -4.4290    -2.3010 ha         1 D7J       0.112000
     52 H20          2.8600    -3.9400    -1.2130 ha         1 D7J       0.109000
     53 H21          4.0230     3.5910    -0.7430 hc         1 D7J       0.048922
     54 H22          5.4060     3.5700    -1.8320 hc         1 D7J       0.048922
     55 H23          4.0740     2.4510    -2.0960 hc         1 D7J       0.048922
     56 H24          7.1370     1.5960    -1.6390 hc         1 D7J       0.048922
     57 H25          6.7260     0.2360    -0.5950 hc         1 D7J       0.048922
     58 H26          5.7920     0.5380    -2.0630 hc         1 D7J       0.048922
     59 H27          5.5800     3.3220     1.2330 hc         1 D7J       0.048922
     60 H28          6.7530     1.9960     1.2630 hc         1 D7J       0.048922
     61 H29          6.9480     3.3260     0.1210 hc         1 D7J       0.048922
     62 H30         -6.4900     0.4450    -1.7040 h1         1 D7J       0.068700
     63 H31         -6.5870     0.9070    -0.0170 h1         1 D7J       0.068700
     64 H32         -5.2320    -1.0290     1.5730 ha         1 D7J       0.129000
     65 H33         -5.5520    -3.4390     2.0900 ha         1 D7J       0.125000
     66 H34         -6.7280    -4.8740     0.4430 h4         1 D7J       0.020100
     67 H35         -7.2420    -1.7260    -2.1430 h4         1 D7J       0.016100
     68 H36         -2.4150     3.0110     1.4520 hn         1 D7J       0.435000
     69 H38          3.0260     0.0270     1.7540 hn         1 D7J       0.319500
     70 H39         -4.1070     0.3440    -1.5130 hn         1 D7J       0.316500
     71 C18          3.5570     0.3570    -0.1770 c          1 D7J       0.657100
     72 C28         -6.0540     0.2680    -0.7200 c3         1 D7J       0.147300
@<TRIPOS>BOND
     1     1     2 1   
     2     1    33 1   
     3     1    34 1   
     4     1    35 1   
     5     2     3 1   
     6     2    25 1   
     7     2    36 1   
     8     3    37 1   
     9     3    38 1   
    10     3    39 1   
    11     4     5 1   
    12     4    19 1   
    13     4    25 1   
    14     4    40 1   
    15     5    32 1   
    16     5    41 1   
    17     5    42 1   
    18     6     7 1   
    19     6    32 1   
    20     6    43 1   
    21     6    44 1   
    22     7     8 1   
    23     7    26 1   
    24     7    45 1   
    25     8     9 1   
    26     8    46 1   
    27     8    47 1   
    28     9    10 ar  
    29     9    14 ar  
    30    10    11 ar  
    31    10    48 1   
    32    11    12 ar  
    33    11    49 1   
    34    12    13 ar  
    35    12    50 1   
    36    13    14 ar  
    37    13    51 1   
    38    14    52 1   
    39    15    16 1   
    40    15    17 1   
    41    15    18 1   
    42    15    30 1   
    43    16    53 1   
    44    16    54 1   
    45    16    55 1   
    46    17    56 1   
    47    17    57 1   
    48    17    58 1   
    49    18    59 1   
    50    18    60 1   
    51    18    61 1   
    52    19    27 1   
    53    19    31 2   
    54    20    21 ar  
    55    20    24 ar  
    56    20    72 1   
    57    21    22 ar  
    58    21    64 1   
    59    22    23 ar  
    60    22    65 1   
    61    23    28 ar  
    62    23    66 1   
    63    24    28 ar  
    64    24    67 1   
    65    25    68 1   
    66    26    69 1   
    67    26    71 1   
    68    27    70 1   
    69    27    72 1   
    70    29    71 2   
    71    30    71 1   
    72    62    72 1   
    73    63    72 1   
@<TRIPOS>SUBSTRUCTURE
     1 D7J         1 TEMP              0 ****  ****    0 ROOT
