@<TRIPOS>MOLECULE
D7L
   35    38     1     0     0
SMALL
No Charge or Current Charge


@<TRIPOS>ATOM
      1 C4         -19.5340    -7.6850    78.3390 ca         1 D7L      -0.008000
      2 C14        -26.5490    -7.8590    81.3980 ca         1 D7L       0.136100
      3 C5         -20.1870    -8.6500    77.5440 ca         1 D7L      -0.199000
      4 C6         -21.6090    -8.7440    77.5430 ca         1 D7L       0.155100
      5 C11        -23.5250    -5.8030    80.5630 cc         1 D7L      -0.146000
      6 C7         -19.9280    -5.7170    80.0050 c          1 D7L       0.325800
      7 C8         -22.2330    -5.9810    80.1140 cd         1 D7L       0.075700
      8 C9         -24.6030    -7.8270    79.3610 ca         1 D7L       0.204300
      9 C10        -24.5370    -6.8600    80.4070 ca         1 D7L       0.000000
     10 C12        -25.6420    -8.7760    79.3490 ca         1 D7L      -0.076000
     11 C13        -26.6080    -8.8000    80.3650 ca         1 D7L      -0.132000
     12 N1         -21.1360    -5.2210    80.5260 n          1 D7L      -0.226700
     13 C3         -20.3240    -6.8550    79.1420 ca         1 D7L      -0.162000
     14 C1         -22.3780    -7.8890    78.3830 ca         1 D7L       0.244300
     15 C15        -25.5270    -6.8980    81.4150 ca         1 D7L      -0.194000
     16 C16        -21.1890    -4.0770    81.4580 c3         1 D7L       0.065900
     17 C17        -21.5830   -10.5410    75.8380 c3         1 D7L       0.143900
     18 C2         -21.7030    -6.9770    79.1950 ca         1 D7L      -0.069800
     19 O1         -23.7510    -7.8620    78.2820 os         1 D7L      -0.485600
     20 O2         -18.7990    -5.2980    80.2080 o          1 D7L      -0.315000
     21 O3         -22.2750    -9.6440    76.7250 os         1 D7L      -0.318100
     22 O4         -27.4890    -7.8780    82.3830 oh         1 D7L      -0.531100
     23 H1         -18.4510    -7.5770    78.3160 ha         1 D7L       0.136000
     24 H2         -19.5790    -9.2910    76.9140 ha         1 D7L       0.125000
     25 H3         -23.7290    -4.9750    81.2320 ha         1 D7L       0.119000
     26 H6         -25.6950    -9.4980    78.5380 ha         1 D7L       0.134000
     27 H7         -27.4030    -9.5410    80.3470 ha         1 D7L       0.134000
     28 H8         -25.4940    -6.1730    82.2240 ha         1 D7L       0.113000
     29 H9         -21.8990    -3.3300    81.0830 h1         1 D7L       0.049033
     30 H10        -21.5150    -4.4240    82.4460 h1         1 D7L       0.049033
     31 H11        -20.2010    -3.6100    81.5520 h1         1 D7L       0.049033
     32 H12        -22.3020   -11.1610    75.2890 h1         1 D7L       0.045700
     33 H13        -20.9870    -9.9830    75.1050 h1         1 D7L       0.045700
     34 H14        -20.9180   -11.2090    76.3990 h1         1 D7L       0.045700
     35 H15        -27.2930    -7.1530    83.0150 ho         1 D7L       0.465000
@<TRIPOS>BOND
     1     1     3 ar  
     2     1    13 ar  
     3     1    23 1   
     4     2    11 ar  
     5     2    15 ar  
     6     2    22 1   
     7     3     4 ar  
     8     3    24 1   
     9     4    14 ar  
    10     4    21 1   
    11     5     7 2   
    12     5     9 1   
    13     5    25 1   
    14     6    12 1   
    15     6    13 1   
    16     6    20 2   
    17     7    12 1   
    18     7    18 1   
    19     8     9 ar  
    20     8    10 ar  
    21     8    19 1   
    22     9    15 ar  
    23    10    11 ar  
    24    10    26 1   
    25    11    27 1   
    26    12    16 1   
    27    13    18 ar  
    28    14    18 ar  
    29    14    19 1   
    30    15    28 1   
    31    16    29 1   
    32    16    30 1   
    33    16    31 1   
    34    17    21 1   
    35    17    32 1   
    36    17    33 1   
    37    17    34 1   
    38    22    35 1   
@<TRIPOS>SUBSTRUCTURE
     1 D7L         1 TEMP              0 ****  ****    0 ROOT
