@<TRIPOS>MOLECULE
D7L
   35    38     1     0     0
SMALL
abcg2


@<TRIPOS>ATOM
      1 C4         -19.5620    -7.6800    78.3230 ca         1 D7L      -0.008000
      2 C14        -26.5180    -7.8720    81.3320 ca         1 D7L       0.136100
      3 C5         -20.2370    -8.6310    77.5630 ca         1 D7L      -0.199000
      4 C6         -21.6340    -8.7220    77.5790 ca         1 D7L       0.155100
      5 C11        -23.4450    -5.8850    80.6000 cc         1 D7L      -0.146000
      6 C7         -19.9280    -5.6970    79.9690 c          1 D7L       0.325800
      7 C8         -22.2040    -5.9630    80.1000 cd         1 D7L       0.075700
      8 C9         -24.5520    -7.8240    79.3590 ca         1 D7L       0.204300
      9 C10        -24.4960    -6.8780    80.3920 ca         1 D7L       0.000000
     10 C12        -25.5530    -8.7810    79.3390 ca         1 D7L      -0.076000
     11 C13        -26.5380    -8.8160    80.3110 ca         1 D7L      -0.132000
     12 N1         -21.1100    -5.1910    80.4730 n          1 D7L      -0.226700
     13 C3         -20.3080    -6.8460    79.1280 ca         1 D7L      -0.162000
     14 C1         -22.3780    -7.8390    78.3830 ca         1 D7L       0.244300
     15 C15        -25.5030    -6.9250    81.3630 ca         1 D7L      -0.194000
     16 C16        -21.1890    -4.1100    81.4210 c3         1 D7L       0.065900
     17 C17        -21.6660   -10.4720    75.9830 c3         1 D7L       0.143900
     18 C2         -21.6910    -6.9570    79.1770 ca         1 D7L      -0.069800
     19 O1         -23.7270    -7.8060    78.2520 os         1 D7L      -0.485600
     20 O2         -18.8200    -5.2500    80.1860 o          1 D7L      -0.315000
     21 O3         -22.3490    -9.5810    76.8470 os         1 D7L      -0.318100
     22 O4         -27.4930    -7.9210    82.2610 oh         1 D7L      -0.531100
     23 H1         -18.4850    -7.6040    78.2630 ha         1 D7L       0.136000
     24 H2         -19.6590    -9.2950    76.9360 ha         1 D7L       0.125000
     25 H3         -23.6660    -5.1160    81.3320 ha         1 D7L       0.119000
     26 H6         -25.5720    -9.4990    78.5290 ha         1 D7L       0.134000
     27 H7         -27.3200    -9.5640    80.2710 ha         1 D7L       0.134000
     28 H8         -25.4750    -6.2000    82.1690 ha         1 D7L       0.113000
     29 H9         -21.8840    -3.3460    81.0730 h1         1 D7L       0.049033
     30 H10        -21.5200    -4.4670    82.3970 h1         1 D7L       0.049033
     31 H11        -20.2060    -3.6610    81.5280 h1         1 D7L       0.049033
     32 H12        -22.4310   -11.0650    75.4890 h1         1 D7L       0.045700
     33 H13        -21.0870    -9.9380    75.2250 h1         1 D7L       0.045700
     34 H14        -21.0000   -11.1410    76.5340 h1         1 D7L       0.045700
     35 H15        -27.3720    -7.2240    82.9150 ho         1 D7L       0.465000
@<TRIPOS>BOND
     1     1     3 ar  
     2     1    13 ar  
     3     1    23 1   
     4     2    11 ar  
     5     2    15 ar  
     6     2    22 1   
     7     3     4 ar  
     8     3    24 1   
     9     4    14 ar  
    10     4    21 1   
    11     5     7 2   
    12     5     9 1   
    13     5    25 1   
    14     6    12 1   
    15     6    13 1   
    16     6    20 2   
    17     7    12 1   
    18     7    18 1   
    19     8     9 ar  
    20     8    10 ar  
    21     8    19 1   
    22     9    15 ar  
    23    10    11 ar  
    24    10    26 1   
    25    11    27 1   
    26    12    16 1   
    27    13    18 ar  
    28    14    18 ar  
    29    14    19 1   
    30    15    28 1   
    31    16    29 1   
    32    16    30 1   
    33    16    31 1   
    34    17    21 1   
    35    17    32 1   
    36    17    33 1   
    37    17    34 1   
    38    22    35 1   
@<TRIPOS>SUBSTRUCTURE
     1 D7L         1 TEMP              0 ****  ****    0 ROOT
