@<TRIPOS>MOLECULE
D7M
   63    64     1     0     0
SMALL
No Charge or Current Charge


@<TRIPOS>ATOM
      1 C20         -2.8820    -0.3930    -0.9330 c          1 D7M       0.559100
      2 C10          2.1160    -0.0370     0.9820 c3         1 D7M       0.008600
      3 C12         -0.5020    -0.4480    -0.0270 c3         1 D7M       0.060600
      4 C13         -1.8690    -1.1780    -0.0350 c3         1 D7M       0.119500
      5 C15         -2.9040    -3.4910    -0.3490 c5         1 D7M       0.172500
      6 C16         -2.5340    -4.9010    -0.8800 c5         1 D7M      -0.077400
      7 C17         -1.6290    -5.5070     0.2390 c5         1 D7M      -0.069400
      8 C18         -2.0210    -4.7450     1.5480 c5         1 D7M      -0.069400
      9 C19         -3.2170    -3.8380     1.1340 c5         1 D7M      -0.077400
     10 C01          6.7260     1.9630    -1.4480 c3         1 D7M      -0.108433
     11 C02          7.3210     1.5510    -0.0760 c3         1 D7M       0.225000
     12 C03          8.2010     0.2760    -0.1540 c3         1 D7M      -0.108433
     13 C04          8.1390     2.7200     0.5160 c3         1 D7M      -0.108433
     14 O05          6.2500     1.3460     0.8760 os         1 D7M      -0.481100
     15 C06          5.2910     0.3850     0.7100 c          1 D7M       0.646100
     16 O07          5.1930    -0.4120    -0.2070 o          1 D7M      -0.545000
     17 N08          4.4360     0.4550     1.7720 ns         1 D7M      -0.504900
     18 C09          3.2580    -0.3960     1.9540 c3         1 D7M       0.130000
     19 N14         -1.7030    -2.6150    -0.4490 n7         1 D7M      -0.856400
     20 O21         -2.6830    -0.1710    -2.1210 o          1 D7M      -0.608100
     21 N22         -4.0310     0.0320    -0.2950 ns         1 D7M      -0.500900
     22 C23         -5.1040     0.7970    -0.9300 c3         1 D7M       0.151300
     23 C24         -4.9410     2.2850    -0.6770 ca         1 D7M      -0.172300
     24 C25         -4.0160     3.0450    -1.4160 ca         1 D7M      -0.052000
     25 C26         -3.9100     4.4170    -1.1370 ca         1 D7M      -0.167000
     26 C27         -4.7240     4.9800    -0.1410 ca         1 D7M       0.339900
     27 N28         -5.6180     4.2560     0.5730 nb         1 D7M      -0.668000
     28 C29         -5.7170     2.9330     0.3030 ca         1 D7M       0.340900
     29 H1           1.8330     1.0150     1.1200 h1         1 D7M       0.063200
     30 H2           2.4530    -0.1740    -0.0530 h1         1 D7M       0.063200
     31 H3          -0.0230    -0.5440    -1.0100 h1         1 D7M       0.067200
     32 H4          -0.6670     0.6200     0.1660 h1         1 D7M       0.067200
     33 H5          -2.2530    -1.1280     0.9910 h1         1 D7M       0.073700
     34 H6          -3.7640    -3.0610    -0.8800 h1         1 D7M       0.034700
     35 H7          -3.4390    -5.5060    -1.0140 hc         1 D7M       0.041950
     36 H8          -2.0320    -4.8710    -1.8540 hc         1 D7M       0.041950
     37 H9          -1.7820    -6.5880     0.3340 hc         1 D7M       0.044200
     38 H10         -0.5670    -5.3590     0.0120 hc         1 D7M       0.044200
     39 H11         -2.2920    -5.4290     2.3600 hc         1 D7M       0.044200
     40 H12         -1.1800    -4.1430     1.9100 hc         1 D7M       0.044200
     41 H13         -3.3160    -2.9570     1.7770 hc         1 D7M       0.041950
     42 H14         -4.1640    -4.3850     1.2080 hc         1 D7M       0.041950
     43 H15          6.2490     1.1200    -1.9580 hc         1 D7M       0.049256
     44 H16          5.9830     2.7600    -1.3260 hc         1 D7M       0.049256
     45 H17          7.5170     2.3370    -2.1090 hc         1 D7M       0.049256
     46 H18          9.1330     0.4890    -0.6910 hc         1 D7M       0.049256
     47 H19          8.4620    -0.0790     0.8500 hc         1 D7M       0.049256
     48 H20          7.6980    -0.5370    -0.6890 hc         1 D7M       0.049256
     49 H21          7.5180     3.6180     0.6190 hc         1 D7M       0.049256
     50 H22          8.5300     2.4590     1.5070 hc         1 D7M       0.049256
     51 H23          8.9890     2.9670    -0.1310 hc         1 D7M       0.049256
     52 H24          4.6460     1.1640     2.4620 hn         1 D7M       0.322500
     53 H25          2.9030    -0.2870     2.9870 h1         1 D7M       0.069200
     54 H26          3.5480    -1.4450     1.8050 h1         1 D7M       0.069200
     55 H27         -1.3750    -2.6210    -1.4220 hn         1 D7M       0.439000
     56 H29         -4.1270    -0.2030     0.6870 hn         1 D7M       0.315500
     57 H30         -5.1130     0.6010    -2.0110 h1         1 D7M       0.065200
     58 H31         -6.0660     0.4520    -0.5270 h1         1 D7M       0.065200
     59 H32         -3.3960     2.5850    -2.1840 ha         1 D7M       0.138000
     60 H33         -3.2080     5.0420    -1.6820 ha         1 D7M       0.127000
     61 H34         -4.6610     6.0420     0.0940 h4         1 D7M       0.020100
     62 H35         -6.4440     2.3770     0.8950 h4         1 D7M       0.013100
     63 S11          0.6380    -1.1060     1.2820 ss         1 D7M      -0.381000
@<TRIPOS>BOND
     1     1     4 1   
     2     1    20 2   
     3     1    21 1   
     4     2    18 1   
     5     2    29 1   
     6     2    30 1   
     7     2    63 1   
     8     3     4 1   
     9     3    31 1   
    10     3    32 1   
    11     3    63 1   
    12     4    19 1   
    13     4    33 1   
    14     5     6 1   
    15     5     9 1   
    16     5    19 1   
    17     5    34 1   
    18     6     7 1   
    19     6    35 1   
    20     6    36 1   
    21     7     8 1   
    22     7    37 1   
    23     7    38 1   
    24     8     9 1   
    25     8    39 1   
    26     8    40 1   
    27     9    41 1   
    28     9    42 1   
    29    10    11 1   
    30    10    43 1   
    31    10    44 1   
    32    10    45 1   
    33    11    12 1   
    34    11    13 1   
    35    11    14 1   
    36    12    46 1   
    37    12    47 1   
    38    12    48 1   
    39    13    49 1   
    40    13    50 1   
    41    13    51 1   
    42    14    15 1   
    43    15    16 2   
    44    15    17 1   
    45    17    18 1   
    46    17    52 1   
    47    18    53 1   
    48    18    54 1   
    49    19    55 1   
    50    21    22 1   
    51    21    56 1   
    52    22    23 1   
    53    22    57 1   
    54    22    58 1   
    55    23    24 ar  
    56    23    28 ar  
    57    24    25 ar  
    58    24    59 1   
    59    25    26 ar  
    60    25    60 1   
    61    26    27 ar  
    62    26    61 1   
    63    27    28 ar  
    64    28    62 1   
@<TRIPOS>SUBSTRUCTURE
     1 D7M         1 TEMP              0 ****  ****    0 ROOT
