@<TRIPOS>MOLECULE
D7M
   63    64     1     0     0
SMALL
bcc


@<TRIPOS>ATOM
      1 C20         -3.2070    -0.5680    -0.5810 c          1 D7M       0.626100
      2 C10          1.8300    -0.2480     0.7710 c3         1 D7M      -0.039300
      3 C12         -0.7780    -0.5900    -0.0890 c3         1 D7M       0.012700
      4 C13         -2.0810    -1.3630     0.0950 c3         1 D7M       0.119500
      5 C15         -3.0000    -3.6300    -0.1100 c5         1 D7M       0.172500
      6 C16         -2.7470    -4.9300    -0.8680 c5         1 D7M      -0.077400
      7 C17         -1.5990    -5.6040    -0.1020 c5         1 D7M      -0.069400
      8 C18         -1.6920    -5.0580     1.3400 c5         1 D7M      -0.069400
      9 C19         -2.8870    -4.0950     1.3410 c5         1 D7M      -0.077400
     10 C01          6.4660     2.2560    -1.2660 c3         1 D7M      -0.108433
     11 C02          6.9230     1.8090     0.1180 c3         1 D7M       0.201800
     12 C03          7.9620     0.6960     0.0440 c3         1 D7M      -0.108433
     13 C04          7.5010     2.9980     0.8750 c3         1 D7M      -0.108433
     14 O05          5.7940     1.4120     0.9410 os         1 D7M      -0.457900
     15 C06          5.0130     0.3750     0.6370 c          1 D7M       0.762100
     16 O07          5.0980    -0.3080    -0.3650 o          1 D7M      -0.594000
     17 N08          4.1080     0.1680     1.6170 ns         1 D7M      -0.571900
     18 C09          3.0520    -0.8050     1.4960 c3         1 D7M       0.130000
     19 N14         -1.9330    -2.6930    -0.4280 n7         1 D7M      -0.801200
     20 O21         -3.4100    -0.6580    -1.7830 o          1 D7M      -0.608100
     21 N22         -3.9120     0.2280     0.2360 ns         1 D7M      -0.567900
     22 C23         -4.9390     1.1440    -0.2190 c3         1 D7M       0.151300
     23 C24         -4.3890     2.5050    -0.5530 ca         1 D7M      -0.237600
     24 C25         -3.7530     2.7650    -1.7630 ca         1 D7M      -0.070000
     25 C26         -3.2410     4.0310    -1.9970 ca         1 D7M      -0.250300
     26 C27         -3.3840     4.9970    -1.0120 ca         1 D7M       0.405200
     27 N28         -3.9920     4.7680     0.1460 nb         1 D7M      -0.668000
     28 C29         -4.4780     3.5510     0.3590 ca         1 D7M       0.406200
     29 H1           1.4230     0.6000     1.3240 h1         1 D7M       0.063200
     30 H2           2.1120     0.0960    -0.2260 h1         1 D7M       0.063200
     31 H3          -0.5810    -0.4110    -1.1490 h1         1 D7M       0.067200
     32 H4          -0.8370     0.3790     0.4110 h1         1 D7M       0.067200
     33 H5          -2.2790    -1.4300     1.1690 h1         1 D7M       0.073700
     34 H6          -4.0010    -3.2280    -0.3320 h1         1 D7M       0.034700
     35 H7          -3.6500    -5.5430    -0.8250 hc         1 D7M       0.041950
     36 H8          -2.5250    -4.7680    -1.9260 hc         1 D7M       0.041950
     37 H9          -1.6780    -6.6910    -0.1400 hc         1 D7M       0.044200
     38 H10         -0.6380    -5.3430    -0.5470 hc         1 D7M       0.044200
     39 H11         -1.8190    -5.8540     2.0750 hc         1 D7M       0.044200
     40 H12         -0.7790    -4.5240     1.6060 hc         1 D7M       0.044200
     41 H13         -2.7720    -3.2790     2.0570 hc         1 D7M       0.041950
     42 H14         -3.8090    -4.6160     1.6140 hc         1 D7M       0.041950
     43 H15          6.0860     1.4340    -1.8660 hc         1 D7M       0.049256
     44 H16          5.6940     3.0230    -1.1910 hc         1 D7M       0.049256
     45 H17          7.3130     2.6930    -1.7970 hc         1 D7M       0.049256
     46 H18          8.8620     1.0770    -0.4390 hc         1 D7M       0.049256
     47 H19          8.2420     0.3580     1.0430 hc         1 D7M       0.049256
     48 H20          7.6170    -0.1610    -0.5310 hc         1 D7M       0.049256
     49 H21          6.7810     3.8150     0.9450 hc         1 D7M       0.049256
     50 H22          7.8050     2.7180     1.8850 hc         1 D7M       0.049256
     51 H23          8.3820     3.3720     0.3530 hc         1 D7M       0.049256
     52 H24          4.0620     0.8220     2.3820 hn         1 D7M       0.322500
     53 H25          2.7730    -1.1240     2.5000 h1         1 D7M       0.069200
     54 H26          3.4310    -1.6840     0.9740 h1         1 D7M       0.069200
     55 H27         -1.8030    -2.6460    -1.4320 hn         1 D7M       0.383800
     56 H29         -3.6590     0.2660     1.2100 hn         1 D7M       0.315500
     57 H30         -5.4360     0.7100    -1.0860 h1         1 D7M       0.065200
     58 H31         -5.6840     1.2280     0.5720 h1         1 D7M       0.065200
     59 H32         -3.6640     1.9880    -2.5110 ha         1 D7M       0.156000
     60 H33         -2.7430     4.2710    -2.9270 ha         1 D7M       0.145000
     61 H34         -2.9940     5.9970    -1.1660 h4         1 D7M       0.020100
     62 H35         -4.9760     3.3920     1.3110 h4         1 D7M       0.013100
     63 S11          0.5760    -1.5560     0.6370 ss         1 D7M      -0.285200
@<TRIPOS>BOND
     1     1     4 1   
     2     1    20 2   
     3     1    21 1   
     4     2    18 1   
     5     2    29 1   
     6     2    30 1   
     7     2    63 1   
     8     3     4 1   
     9     3    31 1   
    10     3    32 1   
    11     3    63 1   
    12     4    19 1   
    13     4    33 1   
    14     5     6 1   
    15     5     9 1   
    16     5    19 1   
    17     5    34 1   
    18     6     7 1   
    19     6    35 1   
    20     6    36 1   
    21     7     8 1   
    22     7    37 1   
    23     7    38 1   
    24     8     9 1   
    25     8    39 1   
    26     8    40 1   
    27     9    41 1   
    28     9    42 1   
    29    10    11 1   
    30    10    43 1   
    31    10    44 1   
    32    10    45 1   
    33    11    12 1   
    34    11    13 1   
    35    11    14 1   
    36    12    46 1   
    37    12    47 1   
    38    12    48 1   
    39    13    49 1   
    40    13    50 1   
    41    13    51 1   
    42    14    15 1   
    43    15    16 2   
    44    15    17 1   
    45    17    18 1   
    46    17    52 1   
    47    18    53 1   
    48    18    54 1   
    49    19    55 1   
    50    21    22 1   
    51    21    56 1   
    52    22    23 1   
    53    22    57 1   
    54    22    58 1   
    55    23    24 ar  
    56    23    28 ar  
    57    24    25 ar  
    58    24    59 1   
    59    25    26 ar  
    60    25    60 1   
    61    26    27 ar  
    62    26    61 1   
    63    27    28 ar  
    64    28    62 1   
@<TRIPOS>SUBSTRUCTURE
     1 D7M         1 TEMP              0 ****  ****    0 ROOT
