@<TRIPOS>MOLECULE
D7N
   52    55     1     0     0
SMALL
bcc


@<TRIPOS>ATOM
      1 C25         -4.7500    -0.4660    -1.2270 c6         1 D7N      -0.076900
      2 C24         -6.2630    -0.5790    -1.0450 c6         1 D7N      -0.126400
      3 C23         -6.7730     0.3530     0.0240 c6         1 D7N       0.422600
      4 F26         -8.1220     0.1710     0.2020 f          1 D7N      -0.244800
      5 F27         -6.6490     1.6550    -0.4050 f          1 D7N      -0.244800
      6 C22         -6.0460     0.1820     1.3330 c6         1 D7N      -0.126400
      7 C21         -4.5380     0.3050     1.1330 c6         1 D7N      -0.076900
      8 C20         -4.0050    -0.6870     0.0910 c6         1 D7N       0.190500
      9 N16         -2.5520    -0.5320    -0.0260 n3         1 D7N      -0.720600
     10 C15         -1.8750    -1.1370     1.1120 c6         1 D7N       0.171800
     11 C14         -0.3960    -0.7850     1.1420 c6         1 D7N      -0.093900
     12 C17         -1.9660    -1.0280    -1.2610 c6         1 D7N       0.171800
     13 C18         -0.4870    -0.6750    -1.3480 c6         1 D7N      -0.093900
     14 C13          0.2690    -1.2380    -0.1520 c6         1 D7N       0.136700
     15 N10          1.6950    -0.9580    -0.1910 n          1 D7N      -0.486800
     16 C9           2.6600    -2.0380    -0.1940 c5         1 D7N       0.144300
     17 C11          2.2630     0.2710    -0.1640 c          1 D7N       0.724100
     18 O12          1.6910     1.3470    -0.1090 o          1 D7N      -0.596500
     19 C7           3.7250     0.0460    -0.1910 ca         1 D7N      -0.146600
     20 C8           3.9670    -1.3170    -0.1830 ca         1 D7N      -0.063300
     21 C3           5.2540    -1.8220    -0.1600 ca         1 D7N      -0.153000
     22 C2           6.2770    -0.8930    -0.1290 ca         1 D7N       0.155900
     23 F5           7.5400    -1.3330    -0.1010 f          1 D7N      -0.134900
     24 C1           6.0640     0.4800    -0.1260 ca         1 D7N      -0.162000
     25 C4           4.7650     0.9650    -0.1670 ca         1 D7N      -0.056600
     26 C6           4.5240     2.4450    -0.2740 c          1 D7N       0.693700
     27 O28          4.1630     2.9410    -1.3270 o          1 D7N      -0.568100
     28 N19          4.7840     3.1310     0.8420 nt         1 D7N      -0.667000
     29 H251        -4.4630    -1.2080    -1.9720 hc         1 D7N       0.058950
     30 H252        -4.4880     0.5140    -1.6370 hc         1 D7N       0.058950
     31 H241        -6.7730    -0.3810    -1.9910 hc         1 D7N       0.066450
     32 H242        -6.5160    -1.6000    -0.7480 hc         1 D7N       0.066450
     33 H20         -4.2470    -1.7120     0.4320 h1         1 D7N       0.019700
     34 H221        -6.4010     0.9160     2.0610 hc         1 D7N       0.066450
     35 H222        -6.2880    -0.8080     1.7270 hc         1 D7N       0.066450
     36 H211        -4.2790     1.3170     0.8110 hc         1 D7N       0.058950
     37 H212        -4.0590     0.1540     2.1010 hc         1 D7N       0.058950
     38 H151        -2.3290    -0.7910     2.0400 h1         1 D7N       0.030700
     39 H152        -1.9930    -2.2360     1.1010 h1         1 D7N       0.030700
     40 H171        -2.0880    -2.1220    -1.3650 h1         1 D7N       0.030700
     41 H172        -2.4630    -0.5740    -2.1160 h1         1 D7N       0.030700
     42 H141        -0.2800     0.2920     1.2690 hc         1 D7N       0.065200
     43 H142         0.0760    -1.2720     1.9980 hc         1 D7N       0.065200
     44 H13          0.1880    -2.3290    -0.1990 h1         1 D7N       0.040700
     45 H181        -0.0770    -1.0800    -2.2760 hc         1 D7N       0.065200
     46 H182        -0.3790     0.4100    -1.3870 hc         1 D7N       0.065200
     47 H91          2.5420    -2.6790     0.6850 h1         1 D7N       0.063200
     48 H92          2.5510    -2.6710    -1.0790 h1         1 D7N       0.063200
     49 H3           5.4620    -2.8840    -0.1620 ha         1 D7N       0.159000
     50 H1           6.9120     1.1530    -0.1040 ha         1 D7N       0.160000
     51 H191         5.0490     2.6710     1.6960 hn         1 D7N       0.318500
     52 H192         4.6730     4.1330     0.8680 hn         1 D7N       0.318500
@<TRIPOS>BOND
     1     1     2 1   
     2     1     8 1   
     3     1    29 1   
     4     1    30 1   
     5     2     3 1   
     6     2    31 1   
     7     2    32 1   
     8     3     4 1   
     9     3     5 1   
    10     3     6 1   
    11     6     7 1   
    12     6    34 1   
    13     6    35 1   
    14     7     8 1   
    15     7    36 1   
    16     7    37 1   
    17     8     9 1   
    18     8    33 1   
    19     9    10 1   
    20     9    12 1   
    21    10    11 1   
    22    10    38 1   
    23    10    39 1   
    24    11    14 1   
    25    11    42 1   
    26    11    43 1   
    27    12    13 1   
    28    12    40 1   
    29    12    41 1   
    30    13    14 1   
    31    13    45 1   
    32    13    46 1   
    33    14    15 1   
    34    14    44 1   
    35    15    16 1   
    36    15    17 1   
    37    16    20 1   
    38    16    47 1   
    39    16    48 1   
    40    17    18 2   
    41    17    19 1   
    42    19    20 ar  
    43    19    25 ar  
    44    20    21 ar  
    45    21    22 ar  
    46    21    49 1   
    47    22    23 1   
    48    22    24 ar  
    49    24    25 ar  
    50    24    50 1   
    51    25    26 1   
    52    26    27 2   
    53    26    28 1   
    54    28    51 1   
    55    28    52 1   
@<TRIPOS>SUBSTRUCTURE
     1 D7N         1 TEMP              0 ****  ****    0 ROOT
