@<TRIPOS>MOLECULE
D7N
   52    55     1     0     0
SMALL
No Charge or Current Charge


@<TRIPOS>ATOM
      1 C25         -4.8610    -0.1490    -1.2910 c6         1 D7N      -0.076900
      2 C24         -6.3960    -0.3770    -1.2740 c6         1 D7N      -0.126400
      3 C23         -7.0390     0.1840     0.0080 c6         1 D7N       0.180000
      4 F26         -8.4060    -0.1410     0.0250 f          1 D7N      -0.123500
      5 F27         -6.9650     1.5890     0.0020 f          1 D7N      -0.123500
      6 C22         -6.3660    -0.3680     1.2790 c6         1 D7N      -0.126400
      7 C21         -4.8320    -0.1400     1.2590 c6         1 D7N      -0.076900
      8 C20         -4.1340    -0.7190    -0.0220 c6         1 D7N       0.190500
      9 N16         -2.6480    -0.4360    -0.0400 n3         1 D7N      -0.720600
     10 C15         -1.9500    -0.9530     1.1860 c6         1 D7N       0.171800
     11 C14         -0.4430    -0.6150     1.2030 c6         1 D7N      -0.093900
     12 C17         -1.9790    -0.9630    -1.2770 c6         1 D7N       0.171800
     13 C18         -0.4720    -0.6250    -1.3310 c6         1 D7N      -0.093900
     14 C13          0.2430    -1.1410    -0.0700 c6         1 D7N       0.136700
     15 N10          1.7060    -0.9150    -0.0850 n          1 D7N      -0.419800
     16 C9           2.6620    -2.0530     0.0000 c5         1 D7N       0.144300
     17 C11          2.3310     0.3430    -0.1290 c          1 D7N       0.581600
     18 O12          1.7580     1.4220    -0.1210 o          1 D7N      -0.521000
     19 C7           3.8000     0.0880    -0.1160 ca         1 D7N      -0.146600
     20 C8           3.9760    -1.2880    -0.0060 ca         1 D7N      -0.063300
     21 C3           5.2570    -1.8430     0.1010 ca         1 D7N      -0.135000
     22 C2           6.3650    -0.9830     0.0970 ca         1 D7N       0.191000
     23 F5           7.6100    -1.4980     0.1980 f          1 D7N      -0.170000
     24 C1           6.1960     0.4100    -0.0240 ca         1 D7N      -0.144000
     25 C4           4.9030     0.9850    -0.1460 ca         1 D7N      -0.056600
     26 C6           4.7620     2.4860    -0.3290 c          1 D7N       0.626700
     27 O28          3.9030     3.0110    -1.0170 o          1 D7N      -0.568100
     28 N19          5.7140     3.2700     0.2300 nt         1 D7N      -0.600000
     29 H251        -4.4860    -0.6260    -2.2040 hc         1 D7N       0.058950
     30 H252        -4.6460     0.9240    -1.3860 hc         1 D7N       0.058950
     31 H241        -6.8540     0.0880    -2.1570 hc         1 D7N       0.066450
     32 H242        -6.6050    -1.4540    -1.3460 hc         1 D7N       0.066450
     33 H20         -4.2870    -1.8090    -0.0160 h1         1 D7N       0.019700
     34 H221        -6.8040     0.1040     2.1700 hc         1 D7N       0.066450
     35 H222        -6.5740    -1.4430     1.3640 hc         1 D7N       0.066450
     36 H211        -4.6140     0.9340     1.3420 hc         1 D7N       0.058950
     37 H212        -4.4360    -0.6090     2.1670 hc         1 D7N       0.058950
     38 H151        -2.3680    -0.5120     2.1000 h1         1 D7N       0.030700
     39 H152        -2.0760    -2.0430     1.2620 h1         1 D7N       0.030700
     40 H171        -2.1050    -2.0540    -1.3410 h1         1 D7N       0.030700
     41 H172        -2.4170    -0.5300    -2.1850 h1         1 D7N       0.030700
     42 H141        -0.3170     0.4720     1.2840 hc         1 D7N       0.065200
     43 H142         0.0260    -1.0570     2.0920 hc         1 D7N       0.065200
     44 H13          0.1000    -2.2320    -0.0650 h1         1 D7N       0.040700
     45 H181        -0.0240    -1.0720    -2.2280 hc         1 D7N       0.065200
     46 H182        -0.3510     0.4620    -1.4230 hc         1 D7N       0.065200
     47 H91          2.5320    -2.6290     0.9260 h1         1 D7N       0.063200
     48 H92          2.5780    -2.7240    -0.8640 h1         1 D7N       0.063200
     49 H3           5.3950    -2.9170     0.1910 ha         1 D7N       0.141000
     50 H1           7.0860     1.0330    -0.0530 ha         1 D7N       0.142000
     51 H191         6.4340     2.8600     0.8050 hn         1 D7N       0.318500
     52 H192         5.6650     4.2690     0.1020 hn         1 D7N       0.318500
@<TRIPOS>BOND
     1     1     2 1   
     2     1     8 1   
     3     1    29 1   
     4     1    30 1   
     5     2     3 1   
     6     2    31 1   
     7     2    32 1   
     8     3     4 1   
     9     3     5 1   
    10     3     6 1   
    11     6     7 1   
    12     6    34 1   
    13     6    35 1   
    14     7     8 1   
    15     7    36 1   
    16     7    37 1   
    17     8     9 1   
    18     8    33 1   
    19     9    10 1   
    20     9    12 1   
    21    10    11 1   
    22    10    38 1   
    23    10    39 1   
    24    11    14 1   
    25    11    42 1   
    26    11    43 1   
    27    12    13 1   
    28    12    40 1   
    29    12    41 1   
    30    13    14 1   
    31    13    45 1   
    32    13    46 1   
    33    14    15 1   
    34    14    44 1   
    35    15    16 1   
    36    15    17 1   
    37    16    20 1   
    38    16    47 1   
    39    16    48 1   
    40    17    18 2   
    41    17    19 1   
    42    19    20 ar  
    43    19    25 ar  
    44    20    21 ar  
    45    21    22 ar  
    46    21    49 1   
    47    22    23 1   
    48    22    24 ar  
    49    24    25 ar  
    50    24    50 1   
    51    25    26 1   
    52    26    27 2   
    53    26    28 1   
    54    28    51 1   
    55    28    52 1   
@<TRIPOS>SUBSTRUCTURE
     1 D7N         1 TEMP              0 ****  ****    0 ROOT
