@<TRIPOS>MOLECULE
D7O
   43    44     1     0     0
SMALL
No Charge or Current Charge


@<TRIPOS>ATOM
      1 C1         -27.0710   -35.4180    21.8940 c          1 D7O       0.596100
      2 C2         -25.8970   -34.6180    21.3140 c6         1 D7O      -0.234700
      3 C3         -24.6940   -34.5290    22.3170 c6         1 D7O      -0.048400
      4 C8         -25.7000   -37.5460    21.9220 c2         1 D7O      -0.133400
      5 C14        -23.2930   -35.7150    24.1480 c          1 D7O       0.602100
      6 C15        -20.8990   -35.4110    24.2190 c3         1 D7O       0.149900
      7 C16        -26.3640   -33.2820    20.7520 c          1 D7O       0.624100
      8 C17        -26.8370   -30.9320    21.3950 c3         1 D7O       0.206000
      9 C19        -28.3190   -30.9480    20.9390 c3         1 D7O      -0.107767
     10 C20        -26.7090   -30.1880    22.7430 c3         1 D7O      -0.107767
     11 C18        -25.8830   -30.3000    20.3490 c3         1 D7O      -0.107767
     12 C7         -24.2840   -37.1250    22.2760 c5         1 D7O      -0.030200
     13 C5         -25.7950   -36.2250    23.9100 c5         1 D7O      -0.055400
     14 C6         -26.6660   -36.6770    22.7050 c5         1 D7O      -0.134500
     15 C9         -26.0380   -38.5190    21.0660 c2         1 D7O      -0.295000
     16 C4         -24.4840   -35.8350    23.1490 c5         1 D7O      -0.115000
     17 O4         -28.2330   -35.0870    21.6960 o          1 D7O      -0.497100
     18 O3         -26.4060   -32.2800    21.6950 os         1 D7O      -0.458100
     19 O2         -26.6880   -33.1630    19.5800 o          1 D7O      -0.484000
     20 O          -22.1160   -35.5420    23.4610 os         1 D7O      -0.442100
     21 O1         -23.3620   -35.7630    25.3700 o          1 D7O      -0.477000
     22 H1         -25.5580   -35.2320    20.4710 hc         1 D7O       0.102700
     23 H2         -23.7770   -34.2760    21.7650 hc         1 D7O       0.067700
     24 H3         -24.8510   -33.7060    23.0280 hc         1 D7O       0.067700
     25 H4         -20.0430   -35.2790    23.5460 h1         1 D7O       0.050033
     26 H5         -20.9450   -34.5390    24.8850 h1         1 D7O       0.050033
     27 H6         -20.7190   -36.3060    24.8280 h1         1 D7O       0.050033
     28 H7         -28.9280   -31.5570    21.6170 hc         1 D7O       0.049367
     29 H8         -28.7280   -29.9300    20.9380 hc         1 D7O       0.049367
     30 H9         -28.4320   -31.3420    19.9230 hc         1 D7O       0.049367
     31 H10        -27.3450   -30.6520    23.5060 hc         1 D7O       0.049367
     32 H11        -25.6730   -30.2080    23.1020 hc         1 D7O       0.049367
     33 H12        -27.0120   -29.1390    22.6400 hc         1 D7O       0.049367
     34 H13        -26.0500   -29.2180    20.2850 hc         1 D7O       0.049367
     35 H14        -24.8350   -30.4640    20.6290 hc         1 D7O       0.049367
     36 H15        -26.0420   -30.7110    19.3470 hc         1 D7O       0.049367
     37 H16        -23.7930   -37.9240    22.8450 hc         1 D7O       0.066200
     38 H17        -23.6690   -36.9430    21.3860 hc         1 D7O       0.066200
     39 H18        -26.2340   -35.3930    24.4740 hc         1 D7O       0.070700
     40 H19        -25.6370   -37.0520    24.6150 hc         1 D7O       0.070700
     41 H20        -27.5720   -37.2120    23.0120 hc         1 D7O       0.094700
     42 H21        -27.0810   -38.7680    20.8620 ha         1 D7O       0.173000
     43 H22        -25.2840   -39.1040    20.5380 ha         1 D7O       0.173000
@<TRIPOS>BOND
     1     1     2 1   
     2     1    14 1   
     3     1    17 2   
     4     2     3 1   
     5     2     7 1   
     6     2    22 1   
     7     3    16 1   
     8     3    23 1   
     9     3    24 1   
    10     4    12 1   
    11     4    14 1   
    12     4    15 2   
    13     5    16 1   
    14     5    20 1   
    15     5    21 2   
    16     6    20 1   
    17     6    25 1   
    18     6    26 1   
    19     6    27 1   
    20     7    18 1   
    21     7    19 2   
    22     8     9 1   
    23     8    10 1   
    24     8    11 1   
    25     8    18 1   
    26     9    28 1   
    27     9    29 1   
    28     9    30 1   
    29    10    31 1   
    30    10    32 1   
    31    10    33 1   
    32    11    34 1   
    33    11    35 1   
    34    11    36 1   
    35    12    16 1   
    36    12    37 1   
    37    12    38 1   
    38    13    14 1   
    39    13    16 1   
    40    13    39 1   
    41    13    40 1   
    42    14    41 1   
    43    15    42 1   
    44    15    43 1   
@<TRIPOS>SUBSTRUCTURE
     1 D7O         1 TEMP              0 ****  ****    0 ROOT
