@<TRIPOS>MOLECULE
D7O
   43    44     1     0     0
SMALL
abcg2


@<TRIPOS>ATOM
      1 C1         -27.0190   -35.3360    21.9440 c          1 D7O       0.596100
      2 C2         -25.8140   -34.6470    21.3180 c6         1 D7O      -0.234700
      3 C3         -24.6170   -34.5410    22.2810 c6         1 D7O      -0.048400
      4 C8         -25.7760   -37.4570    21.9940 c2         1 D7O      -0.133400
      5 C14        -23.2390   -35.6290    24.0320 c          1 D7O       0.602100
      6 C15        -20.8900   -35.4530    24.0720 c3         1 D7O       0.149900
      7 C16        -26.2270   -33.3160    20.7210 c          1 D7O       0.624100
      8 C17        -26.8700   -31.0550    21.4120 c3         1 D7O       0.206000
      9 C19        -28.2240   -31.0190    20.7150 c3         1 D7O      -0.107767
     10 C20        -26.9910   -30.4660    22.8110 c3         1 D7O      -0.107767
     11 C18        -25.7990   -30.3100    20.6250 c3         1 D7O      -0.107767
     12 C7         -24.3350   -37.0740    22.2470 c5         1 D7O      -0.030200
     13 C5         -25.7290   -36.0530    23.9130 c5         1 D7O      -0.055400
     14 C6         -26.6670   -36.5320    22.7980 c5         1 D7O      -0.134500
     15 C9         -26.2090   -38.4390    21.2150 c2         1 D7O      -0.295000
     16 C4         -24.4370   -35.8130    23.1300 c5         1 D7O      -0.115000
     17 O4         -28.1490   -34.9670    21.7420 o          1 D7O      -0.497100
     18 O3         -26.4550   -32.4300    21.6690 os         1 D7O      -0.458100
     19 O2         -26.3310   -33.1300    19.5360 o          1 D7O      -0.484000
     20 O          -22.1050   -35.6420    23.3470 os         1 D7O      -0.442100
     21 O1         -23.2960   -35.4760    25.2260 o          1 D7O      -0.477000
     22 H1         -25.5210   -35.2840    20.4760 hc         1 D7O       0.102700
     23 H2         -23.7210   -34.3430    21.6920 hc         1 D7O       0.067700
     24 H3         -24.7600   -33.6950    22.9570 hc         1 D7O       0.067700
     25 H4         -20.0940   -35.4890    23.3340 h1         1 D7O       0.050033
     26 H5         -20.8740   -34.4860    24.5750 h1         1 D7O       0.050033
     27 H6         -20.7390   -36.2430    24.8060 h1         1 D7O       0.050033
     28 H7         -28.9560   -31.6220    21.2540 hc         1 D7O       0.049367
     29 H8         -28.5860   -29.9900    20.7030 hc         1 D7O       0.049367
     30 H9         -28.1740   -31.3660    19.6860 hc         1 D7O       0.049367
     31 H10        -27.7400   -30.9950    23.4030 hc         1 D7O       0.049367
     32 H11        -26.0400   -30.5010    23.3450 hc         1 D7O       0.049367
     33 H12        -27.2970   -29.4220    22.7420 hc         1 D7O       0.049367
     34 H13        -26.0550   -29.2500    20.5980 hc         1 D7O       0.049367
     35 H14        -24.8250   -30.4020    21.1070 hc         1 D7O       0.049367
     36 H15        -25.7160   -30.6570    19.5980 hc         1 D7O       0.049367
     37 H16        -23.8310   -37.8820    22.7840 hc         1 D7O       0.066200
     38 H17        -23.7750   -36.9040    21.3260 hc         1 D7O       0.066200
     39 H18        -26.0880   -35.1630    24.4330 hc         1 D7O       0.070700
     40 H19        -25.6070   -36.8470    24.6520 hc         1 D7O       0.070700
     41 H20        -27.5790   -37.0110    23.1540 hc         1 D7O       0.094700
     42 H21        -27.2650   -38.6510    21.1050 ha         1 D7O       0.173000
     43 H22        -25.5220   -39.0690    20.6630 ha         1 D7O       0.173000
@<TRIPOS>BOND
     1     1     2 1   
     2     1    14 1   
     3     1    17 2   
     4     2     3 1   
     5     2     7 1   
     6     2    22 1   
     7     3    16 1   
     8     3    23 1   
     9     3    24 1   
    10     4    12 1   
    11     4    14 1   
    12     4    15 2   
    13     5    16 1   
    14     5    20 1   
    15     5    21 2   
    16     6    20 1   
    17     6    25 1   
    18     6    26 1   
    19     6    27 1   
    20     7    18 1   
    21     7    19 2   
    22     8     9 1   
    23     8    10 1   
    24     8    11 1   
    25     8    18 1   
    26     9    28 1   
    27     9    29 1   
    28     9    30 1   
    29    10    31 1   
    30    10    32 1   
    31    10    33 1   
    32    11    34 1   
    33    11    35 1   
    34    11    36 1   
    35    12    16 1   
    36    12    37 1   
    37    12    38 1   
    38    13    14 1   
    39    13    16 1   
    40    13    39 1   
    41    13    40 1   
    42    14    41 1   
    43    15    42 1   
    44    15    43 1   
@<TRIPOS>SUBSTRUCTURE
     1 D7O         1 TEMP              0 ****  ****    0 ROOT
