@<TRIPOS>MOLECULE
D7P
   51    51     1     0     0
SMALL
No Charge or Current Charge


@<TRIPOS>ATOM
      1 N1          -0.3600    -5.0450    -1.5080 nt         1 D7P      -0.602000
      2 N           -2.0630     1.8520     0.2460 n8         1 D7P      -0.990200
      3 CA          -2.6150     0.4780    -0.0060 c3         1 D7P       0.093500
      4 O           -1.2190    -0.9260     1.4610 o          1 D7P      -0.599100
      5 CB          -3.9740     0.3100     0.7220 c3         1 D7P      -0.076100
      6 CG          -5.0010     1.3780     0.3510 ca         1 D7P      -0.085300
      7 CD1         -5.5760     1.3890    -0.9360 ca         1 D7P      -0.109500
      8 CE1         -6.5230     2.3700    -1.2810 ca         1 D7P      -0.107000
      9 CZ          -6.9020     3.3430    -0.3420 ca         1 D7P      -0.109000
     10 CE2         -6.3350     3.3350     0.9430 ca         1 D7P      -0.107000
     11 CD2         -5.3890     2.3550     1.2890 ca         1 D7P      -0.109500
     12 N2          -1.3030    -1.5160    -0.7420 ns         1 D7P      -0.483900
     13 C1          -0.4200    -2.7060    -0.6770 c3         1 D7P       0.030700
     14 C           -1.0030    -3.8560    -1.5570 c          1 D7P       0.590100
     15 O1          -1.9840    -3.7320    -2.2750 o          1 D7P      -0.604100
     16 C2           1.0470    -2.3600    -1.0620 c3         1 D7P      -0.083400
     17 C3           1.7170    -1.2890    -0.1670 c3         1 D7P      -0.093400
     18 CD           3.1930    -1.0400    -0.5340 c3         1 D7P       0.226800
     19 NE           3.7750    -0.0120     0.3400 nu         1 D7P      -0.907400
     20 C4           5.0460     0.4220     0.2460 c2         1 D7P       0.819100
     21 NH1          5.3100     1.4440     1.0930 nu         1 D7P      -0.728200
     22 NH2          5.8770    -0.0460    -0.5740 n2         1 D7P      -0.874100
     23 NO           6.5770     1.9240     1.3480 n3         1 D7P       0.040600
     24 O2           7.1380     3.0860     0.7650 oh         1 D7P      -0.485800
     25 O3           7.3520     1.5960     2.4830 oh         1 D7P      -0.485800
     26 H1'1         0.4490    -5.1630    -0.9150 hn         1 D7P       0.316000
     27 H1'2        -0.7040    -5.8140    -2.0640 hn         1 D7P       0.316000
     28 HN'2        -1.8140     1.9330     1.2390 hn         1 D7P       0.410500
     29 HA          -2.8210     0.4140    -1.0830 h1         1 D7P       0.066700
     30 HB'1        -4.3790    -0.6810     0.4800 hc         1 D7P       0.069700
     31 HB'2        -3.8030     0.3030     1.8060 hc         1 D7P       0.069700
     32 HD1         -5.2910     0.6380    -1.6690 ha         1 D7P       0.110500
     33 HE1         -6.9620     2.3740    -2.2770 ha         1 D7P       0.113000
     34 HZ          -7.6350     4.1020    -0.6100 ha         1 D7P       0.113000
     35 HE2         -6.6290     4.0880     1.6710 ha         1 D7P       0.113000
     36 HD2         -4.9570     2.3580     2.2880 ha         1 D7P       0.110500
     37 HN          -1.7220    -1.2840    -1.6350 hn         1 D7P       0.319500
     38 H2          -0.4220    -3.0880     0.3520 h1         1 D7P       0.079700
     39 HB1          1.6550    -3.2720    -1.0170 hc         1 D7P       0.056200
     40 HB2          1.0710    -2.0210    -2.1060 hc         1 D7P       0.056200
     41 HG1          1.1680    -0.3430    -0.2550 hc         1 D7P       0.051200
     42 HG2          1.6530    -1.6060     0.8810 hc         1 D7P       0.051200
     43 HD1A         3.7540    -1.9800    -0.4360 h1         1 D7P       0.052200
     44 HD2A         3.2540    -0.7180    -1.5840 h1         1 D7P       0.052200
     45 HNE          3.3830     0.0630     1.2710 hn         1 D7P       0.472000
     46 HH1          4.5070     1.8970     1.5110 hn         1 D7P       0.476000
     47 HH2          6.7340     0.4910    -0.4220 hn         1 D7P       0.397400
     48 HO2          7.6880     2.7310     0.0350 ho         1 D7P       0.471000
     49 HO3          7.9260     0.8700     2.1560 ho         1 D7P       0.471000
     50 C5          -1.6460    -0.7160     0.3310 c          1 D7P       0.609100
     51 HN'1        -2.8270     2.5310     0.1370 hn         1 D7P       0.410500
@<TRIPOS>BOND
     1     1    14 1   
     2     1    26 1   
     3     1    27 1   
     4     2     3 1   
     5     2    28 1   
     6     2    51 1   
     7     3     5 1   
     8     3    29 1   
     9     3    50 1   
    10     4    50 2   
    11     5     6 1   
    12     5    30 1   
    13     5    31 1   
    14     6     7 ar  
    15     6    11 ar  
    16     7     8 ar  
    17     7    32 1   
    18     8     9 ar  
    19     8    33 1   
    20     9    10 ar  
    21     9    34 1   
    22    10    11 ar  
    23    10    35 1   
    24    11    36 1   
    25    12    13 1   
    26    12    37 1   
    27    12    50 1   
    28    13    14 1   
    29    13    16 1   
    30    13    38 1   
    31    14    15 2   
    32    16    17 1   
    33    16    39 1   
    34    16    40 1   
    35    17    18 1   
    36    17    41 1   
    37    17    42 1   
    38    18    19 1   
    39    18    43 1   
    40    18    44 1   
    41    19    20 1   
    42    19    45 1   
    43    20    21 1   
    44    20    22 2   
    45    21    23 1   
    46    21    46 1   
    47    22    47 1   
    48    23    24 1   
    49    23    25 1   
    50    24    48 1   
    51    25    49 1   
@<TRIPOS>SUBSTRUCTURE
     1 D7P         1 TEMP              0 ****  ****    0 ROOT
