@<TRIPOS>MOLECULE
D7P
   51    51     1     0     0
SMALL
bcc


@<TRIPOS>ATOM
      1 N1          -0.7820    -4.4720    -0.2840 nt         1 D7P      -0.669000
      2 N           -3.5490     0.7360     2.2290 n8         1 D7P      -0.879800
      3 CA          -3.0680     0.3040     0.9360 c3         1 D7P       0.093500
      4 O           -2.4750    -1.8190     1.8810 o          1 D7P      -0.599100
      5 CB          -4.1660    -0.0840    -0.0860 c3         1 D7P      -0.076100
      6 CG          -5.0530     1.0810    -0.4100 ca         1 D7P      -0.085300
      7 CD1         -4.6610     2.0260    -1.3580 ca         1 D7P      -0.127500
      8 CE1         -5.4530     3.1310    -1.6320 ca         1 D7P      -0.125000
      9 CZ          -6.6550     3.3120    -0.9580 ca         1 D7P      -0.127000
     10 CE2         -7.0560     2.3800    -0.0120 ca         1 D7P      -0.125000
     11 CD2         -6.2590     1.2740     0.2600 ca         1 D7P      -0.127500
     12 N2          -1.0780    -0.9460     0.3460 ns         1 D7P      -0.550900
     13 C1          -0.3070    -2.1500     0.1850 c3         1 D7P       0.030700
     14 C           -1.1300    -3.2090    -0.5590 c          1 D7P       0.657100
     15 O1          -1.9930    -2.8990    -1.3630 o          1 D7P      -0.604100
     16 C2           0.9770    -1.8570    -0.5930 c3         1 D7P      -0.083400
     17 C3           1.9330    -0.9450     0.1640 c3         1 D7P      -0.093400
     18 CD           3.2070    -0.7000    -0.6290 c3         1 D7P       0.226800
     19 NE           4.1140     0.1320     0.1280 nu         1 D7P      -0.852200
     20 C4           5.2610     0.5990    -0.4400 c2         1 D7P       0.819100
     21 NH1          6.0450     1.3120     0.4710 nu         1 D7P      -0.673000
     22 NH2          5.5020     0.4520    -1.6830 n2         1 D7P      -0.874100
     23 NO           7.3540     1.4970     0.1120 n3         1 D7P       0.040600
     24 O2           7.7610     2.6920     0.6880 oh         1 D7P      -0.446800
     25 O3           8.1120     0.4930     0.7210 oh         1 D7P      -0.446800
     26 H1'1        -0.0920    -4.6940     0.4130 hn         1 D7P       0.316000
     27 H1'2        -1.2080    -5.2410    -0.7750 hn         1 D7P       0.316000
     28 HN'2        -4.0870    -0.0060     2.6610 hn         1 D7P       0.355300
     29 HA          -2.4820     1.1220     0.5040 h1         1 D7P       0.066700
     30 HB'1        -3.6900    -0.4620    -0.9950 hc         1 D7P       0.069700
     31 HB'2        -4.7550    -0.9040     0.3330 hc         1 D7P       0.069700
     32 HD1         -3.7250     1.8930    -1.8900 ha         1 D7P       0.128500
     33 HE1         -5.1330     3.8520    -2.3740 ha         1 D7P       0.131000
     34 HZ          -7.2770     4.1710    -1.1740 ha         1 D7P       0.131000
     35 HE2         -7.9930     2.5090     0.5150 ha         1 D7P       0.131000
     36 HD2         -6.5850     0.5450     0.9930 ha         1 D7P       0.128500
     37 HN          -0.9580    -0.2200    -0.3440 hn         1 D7P       0.319500
     38 H2          -0.0350    -2.5350     1.1730 h1         1 D7P       0.079700
     39 HB1          1.4750    -2.8060    -0.8060 hc         1 D7P       0.056200
     40 HB2          0.7210    -1.4190    -1.5630 hc         1 D7P       0.056200
     41 HG1          1.4580     0.0130     0.3880 hc         1 D7P       0.051200
     42 HG2          2.1780    -1.4090     1.1250 hc         1 D7P       0.051200
     43 HD1A         3.6690    -1.6580    -0.8990 h1         1 D7P       0.052200
     44 HD2A         2.9690    -0.1950    -1.5660 h1         1 D7P       0.052200
     45 HNE          4.1360    -0.0480     1.1200 hn         1 D7P       0.416800
     46 HH1          5.8930     1.1160     1.4580 hn         1 D7P       0.420800
     47 HH2          6.3620     0.9230    -1.9370 hn         1 D7P       0.397400
     48 HO2          8.2080     3.1580    -0.0290 ho         1 D7P       0.432000
     49 HO3          8.7270     0.2100     0.0340 ho         1 D7P       0.432000
     50 C5          -2.1790    -0.9140     1.1170 c          1 D7P       0.676100
     51 HN'1        -4.1810     1.5190     2.1160 hn         1 D7P       0.355300
@<TRIPOS>BOND
     1     1    14 1   
     2     1    26 1   
     3     1    27 1   
     4     2     3 1   
     5     2    28 1   
     6     2    51 1   
     7     3     5 1   
     8     3    29 1   
     9     3    50 1   
    10     4    50 2   
    11     5     6 1   
    12     5    30 1   
    13     5    31 1   
    14     6     7 ar  
    15     6    11 ar  
    16     7     8 ar  
    17     7    32 1   
    18     8     9 ar  
    19     8    33 1   
    20     9    10 ar  
    21     9    34 1   
    22    10    11 ar  
    23    10    35 1   
    24    11    36 1   
    25    12    13 1   
    26    12    37 1   
    27    12    50 1   
    28    13    14 1   
    29    13    16 1   
    30    13    38 1   
    31    14    15 2   
    32    16    17 1   
    33    16    39 1   
    34    16    40 1   
    35    17    18 1   
    36    17    41 1   
    37    17    42 1   
    38    18    19 1   
    39    18    43 1   
    40    18    44 1   
    41    19    20 1   
    42    19    45 1   
    43    20    21 1   
    44    20    22 2   
    45    21    23 1   
    46    21    46 1   
    47    22    47 1   
    48    23    24 1   
    49    23    25 1   
    50    24    48 1   
    51    25    49 1   
@<TRIPOS>SUBSTRUCTURE
     1 D7P         1 TEMP              0 ****  ****    0 ROOT
