@<TRIPOS>MOLECULE
D7Q
   47    50     1     0     0
SMALL
No Charge or Current Charge


@<TRIPOS>ATOM
      1 C10         42.4670    16.8940     9.2750 c6         1 D7Q       0.218800
      2 C17         40.2720    17.9440    11.9380 ca         1 D7Q      -0.101300
      3 C20         38.3290    16.4730    12.2040 ca         1 D7Q      -0.144000
      4 C22         37.8460    17.2840    13.2390 ca         1 D7Q      -0.133000
      5 C24         38.5740    18.4160    13.6370 ca         1 D7Q      -0.095000
      6 C26         39.7910    18.7550    13.0050 ca         1 D7Q      -0.104600
      7 C01         38.8610    15.2360     6.8880 c3         1 D7Q      -0.167100
      8 C05         40.3850    15.4050     6.8550 c          1 D7Q       0.608100
      9 O06         41.0770    14.4620     6.4830 o          1 D7Q      -0.631100
     10 N07         40.9720    16.6110     7.3320 n          1 D7Q      -0.214400
     11 C08         42.3960    16.6240     7.7460 c6         1 D7Q       0.117700
     12 N13         41.5610    17.9980     9.7330 nh         1 D7Q      -0.825400
     13 C14         41.5720    18.2930    11.1910 c3         1 D7Q       0.263100
     14 C18         39.5330    16.7990    11.5610 ca         1 D7Q      -0.125000
     15 C27         40.5460    19.9710    13.4970 c          1 D7Q       0.701600
     16 O28         41.7160    19.8370    13.8270 o          1 D7Q      -0.718500
     17 O30         39.9370    21.0270    13.5950 o          1 D7Q      -0.718500
     18 C31         40.5280    18.4840     8.8730 ca         1 D7Q       0.343000
     19 C32         39.7700    19.6210     9.2240 ca         1 D7Q      -0.164000
     20 C34         38.7430    20.0890     8.3910 ca         1 D7Q      -0.076000
     21 C36         38.4590    19.4220     7.1930 ca         1 D7Q      -0.175000
     22 C38         39.2080    18.2960     6.8210 ca         1 D7Q      -0.092000
     23 C40         40.2710    17.8420     7.6300 ca         1 D7Q      -0.143000
     24 C41         43.2300    17.6420     6.9420 cx         1 D7Q      -0.121700
     25 C43         43.7020    17.3030     5.5470 cx         1 D7Q      -0.131900
     26 C46         44.6980    17.3960     6.6820 cx         1 D7Q      -0.131900
     27 H1          42.1900    15.9650     9.7950 h1         1 D7Q       0.052200
     28 H2          43.5100    17.1150     9.5490 h1         1 D7Q       0.052200
     29 H3          37.7700    15.5920    11.8970 ha         1 D7Q       0.086000
     30 H4          36.9130    17.0340    13.7380 ha         1 D7Q       0.088000
     31 H5          38.1970    19.0340    14.4490 ha         1 D7Q       0.118000
     32 H6          38.5750    14.1800     6.9440 hc         1 D7Q       0.061033
     33 H7          38.4180    15.8230     7.7000 hc         1 D7Q       0.061033
     34 H8          38.4410    15.6590     5.9710 hc         1 D7Q       0.061033
     35 H9          42.8500    15.6380     7.5780 h1         1 D7Q       0.087700
     36 H10         42.3910    17.7470    11.6810 h1         1 D7Q       0.083700
     37 H11         41.8050    19.3580    11.3200 h1         1 D7Q       0.083700
     38 H12         39.8870    16.1600    10.7560 ha         1 D7Q       0.093000
     39 H14         39.9690    20.1490    10.1500 ha         1 D7Q       0.149000
     40 H15         38.1640    20.9650     8.6780 ha         1 D7Q       0.108000
     41 H16         37.6590    19.7800     6.5490 ha         1 D7Q       0.102000
     42 H17         38.9860    17.8110     5.8750 ha         1 D7Q       0.101000
     43 H18         42.9310    18.6730     7.1180 hc         1 D7Q       0.097700
     44 H19         43.4700    16.3150     5.1550 hc         1 D7Q       0.069450
     45 H20         43.7010    18.0990     4.8060 hc         1 D7Q       0.069450
     46 H21         45.1370    16.4700     7.0470 hc         1 D7Q       0.069450
     47 H22         45.3660    18.2540     6.7020 hc         1 D7Q       0.069450
@<TRIPOS>BOND
     1     1    11 1   
     2     1    12 1   
     3     1    27 1   
     4     1    28 1   
     5     2     6 ar  
     6     2    13 1   
     7     2    14 ar  
     8     3     4 ar  
     9     3    14 ar  
    10     3    29 1   
    11     4     5 ar  
    12     4    30 1   
    13     5     6 ar  
    14     5    31 1   
    15     6    15 1   
    16     7     8 1   
    17     7    32 1   
    18     7    33 1   
    19     7    34 1   
    20     8     9 2   
    21     8    10 1   
    22    10    11 1   
    23    10    23 1   
    24    11    24 1   
    25    11    35 1   
    26    12    13 1   
    27    12    18 1   
    28    13    36 1   
    29    13    37 1   
    30    14    38 1   
    31    15    16 1   
    32    15    17 1   
    33    18    19 ar  
    34    18    23 ar  
    35    19    20 ar  
    36    19    39 1   
    37    20    21 ar  
    38    20    40 1   
    39    21    22 ar  
    40    21    41 1   
    41    22    23 ar  
    42    22    42 1   
    43    24    25 1   
    44    24    26 1   
    45    24    43 1   
    46    25    26 1   
    47    25    44 1   
    48    25    45 1   
    49    26    46 1   
    50    26    47 1   
@<TRIPOS>SUBSTRUCTURE
     1 D7Q         1 TEMP              0 ****  ****    0 ROOT
