@<TRIPOS>MOLECULE
D7Q
   47    50     1     0     0
SMALL
abcg2


@<TRIPOS>ATOM
      1 C10         42.0270    16.8190     9.3450 c6         1 D7Q       0.218800
      2 C17         40.2320    18.1070    11.9080 ca         1 D7Q      -0.101300
      3 C20         38.3710    16.6470    12.4510 ca         1 D7Q      -0.144000
      4 C22         38.3140    17.1830    13.7320 ca         1 D7Q      -0.133000
      5 C24         39.2250    18.1660    14.1020 ca         1 D7Q      -0.095000
      6 C26         40.1760    18.6480    13.2020 ca         1 D7Q      -0.104600
      7 C01         38.9530    15.2130     6.4620 c3         1 D7Q      -0.167100
      8 C05         40.4250    15.3610     6.7660 c          1 D7Q       0.608100
      9 O06         41.1840    14.4030     6.6030 o          1 D7Q      -0.631100
     10 N07         40.8870    16.5550     7.2470 n          1 D7Q      -0.214400
     11 C08         42.2300    16.6180     7.8470 c6         1 D7Q       0.117700
     12 N13         41.2130    17.9960     9.6040 nh         1 D7Q      -0.825400
     13 C14         41.2870    18.5870    10.9230 c3         1 D7Q       0.263100
     14 C18         39.3310    17.1040    11.5540 ca         1 D7Q      -0.125000
     15 C27         41.1160    19.7550    13.6630 c          1 D7Q       0.701600
     16 O28         41.7750    19.5340    14.7080 o          1 D7Q      -0.718500
     17 O30         41.1370    20.8070    12.9740 o          1 D7Q      -0.718500
     18 C31         40.2720    18.4100     8.6910 ca         1 D7Q       0.343000
     19 C32         39.4560    19.5340     8.9170 ca         1 D7Q      -0.164000
     20 C34         38.5820    19.9960     7.9440 ca         1 D7Q      -0.076000
     21 C36         38.4960    19.3640     6.7070 ca         1 D7Q      -0.175000
     22 C38         39.2760    18.2380     6.4750 ca         1 D7Q      -0.092000
     23 C40         40.1100    17.7240     7.4600 ca         1 D7Q      -0.143000
     24 C41         43.0780    17.6860     7.2040 cx         1 D7Q      -0.121700
     25 C43         43.7640    17.3840     5.9020 cx         1 D7Q      -0.131900
     26 C46         44.5680    17.4990     7.1720 cx         1 D7Q      -0.131900
     27 H1          41.5730    15.9140     9.7650 h1         1 D7Q       0.052200
     28 H2          42.9960    16.9590     9.8270 h1         1 D7Q       0.052200
     29 H3          37.6740    15.8750    12.1490 ha         1 D7Q       0.086000
     30 H4          37.5730    16.8340    14.4410 ha         1 D7Q       0.088000
     31 H5          39.2010    18.5750    15.1050 ha         1 D7Q       0.118000
     32 H6          38.6970    14.1660     6.6130 hc         1 D7Q       0.061033
     33 H7          38.3250    15.8460     7.0840 hc         1 D7Q       0.061033
     34 H8          38.7590    15.4610     5.4180 hc         1 D7Q       0.061033
     35 H9          42.6930    15.6480     7.6890 h1         1 D7Q       0.087700
     36 H10         42.2770    18.3580    11.3230 h1         1 D7Q       0.083700
     37 H11         41.2420    19.6720    10.8530 h1         1 D7Q       0.083700
     38 H12         39.3760    16.6750    10.5620 ha         1 D7Q       0.093000
     39 H14         39.5040    20.0460     9.8660 ha         1 D7Q       0.149000
     40 H15         37.9710    20.8650     8.1560 ha         1 D7Q       0.108000
     41 H16         37.8370    19.7380     5.9350 ha         1 D7Q       0.102000
     42 H17         39.2360    17.7400     5.5160 ha         1 D7Q       0.101000
     43 H18         42.7250    18.7010     7.3400 hc         1 D7Q       0.097700
     44 H19         43.6230    16.3950     5.4860 hc         1 D7Q       0.069450
     45 H20         43.8430    18.1780     5.1720 hc         1 D7Q       0.069450
     46 H21         44.9670    16.5870     7.5990 hc         1 D7Q       0.069450
     47 H22         45.1940    18.3710     7.3070 hc         1 D7Q       0.069450
@<TRIPOS>BOND
     1     1    11 1   
     2     1    12 1   
     3     1    27 1   
     4     1    28 1   
     5     2     6 ar  
     6     2    13 1   
     7     2    14 ar  
     8     3     4 ar  
     9     3    14 ar  
    10     3    29 1   
    11     4     5 ar  
    12     4    30 1   
    13     5     6 ar  
    14     5    31 1   
    15     6    15 1   
    16     7     8 1   
    17     7    32 1   
    18     7    33 1   
    19     7    34 1   
    20     8     9 2   
    21     8    10 1   
    22    10    11 1   
    23    10    23 1   
    24    11    24 1   
    25    11    35 1   
    26    12    13 1   
    27    12    18 1   
    28    13    36 1   
    29    13    37 1   
    30    14    38 1   
    31    15    16 1   
    32    15    17 1   
    33    18    19 ar  
    34    18    23 ar  
    35    19    20 ar  
    36    19    39 1   
    37    20    21 ar  
    38    20    40 1   
    39    21    22 ar  
    40    21    41 1   
    41    22    23 ar  
    42    22    42 1   
    43    24    25 1   
    44    24    26 1   
    45    24    43 1   
    46    25    26 1   
    47    25    44 1   
    48    25    45 1   
    49    26    46 1   
    50    26    47 1   
@<TRIPOS>SUBSTRUCTURE
     1 D7Q         1 TEMP              0 ****  ****    0 ROOT
