@<TRIPOS>MOLECULE
D7S
   71    74     1     0     0
SMALL
No Charge or Current Charge


@<TRIPOS>ATOM
      1 O3          -9.4470    -1.2820    -0.6080 o          1 D7S      -0.739000
      2 C27         -8.8690    -0.7580     0.3330 c          1 D7S       0.718000
      3 O2          -9.1390    -0.9950     1.5010 o          1 D7S      -0.739000
      4 C25         -7.7380     0.2530     0.0200 c3         1 D7S      -0.191700
      5 C26         -8.1040     1.6690     0.5320 c3         1 D7S      -0.061100
      6 C24         -6.3710    -0.2600     0.5570 c3         1 D7S      -0.052400
      7 C23         -5.1410     0.5430     0.0680 c3         1 D7S      -0.079400
      8 C22         -3.7990    -0.0550     0.5620 c3         1 D7S      -0.078400
      9 C20         -2.5030     0.5950    -0.0250 c3         1 D7S      -0.050700
     10 C21         -2.3820     2.0760     0.4170 c3         1 D7S      -0.083100
     11 C17         -1.2190    -0.2760     0.3550 c5         1 D7S      -0.051700
     12 C16         -1.2850    -1.7370    -0.2410 c5         1 D7S      -0.077400
     13 C15          0.1900    -2.1810    -0.4970 c5         1 D7S      -0.071400
     14 C14          0.9910    -1.0920     0.2560 c5         1 D7S      -0.036500
     15 C8           2.4810    -0.9640    -0.0980 c2         1 D7S      -0.082400
     16 C7           3.1470    -1.9590    -0.7190 c2         1 D7S      -0.236200
     17 C6           4.6600    -1.9770    -0.8950 c6         1 D7S      -0.032200
     18 C13          0.2260     0.2140    -0.1370 c5         1 D7S      -0.035000
     19 C18          0.3190     0.5920    -1.6800 c3         1 D7S      -0.075100
     20 C12          0.8610     1.3730     0.7000 c6         1 D7S      -0.062400
     21 C11          2.3660     1.5820     0.3730 c6         1 D7S      -0.068400
     22 C9           3.2220     0.2740     0.4880 c6         1 D7S      -0.015500
     23 C10          4.7350     0.4510    -0.0070 c6         1 D7S      -0.034000
     24 C1           5.5080     1.4030     0.9680 c6         1 D7S      -0.063400
     25 C19          4.7710     1.0350    -1.4670 c3         1 D7S      -0.081100
     26 C5           5.3860    -0.9790     0.0520 c6         1 D7S      -0.047700
     27 C4           6.9220    -0.9820    -0.2050 c6         1 D7S      -0.182400
     28 C3           7.6570     0.0520     0.6550 c          1 D7S       0.578100
     29 O1           8.6500    -0.2380     1.3110 o          1 D7S      -0.529100
     30 C2           7.0370     1.4540     0.7030 c6         1 D7S      -0.184400
     31 H2          -7.6540     0.3200    -1.0720 hc         1 D7S       0.024700
     32 H3          -7.3880     2.4180     0.1750 hc         1 D7S       0.011367
     33 H4          -9.0970     1.9600     0.1700 hc         1 D7S       0.011367
     34 H5          -8.1180     1.7000     1.6280 hc         1 D7S       0.011367
     35 H6          -6.3870    -0.2630     1.6550 hc         1 D7S       0.039700
     36 H7          -6.2490    -1.3050     0.2450 hc         1 D7S       0.039700
     37 H8          -5.1430     0.5700    -1.0280 hc         1 D7S       0.026200
     38 H9          -5.2360     1.5750     0.4200 hc         1 D7S       0.026200
     39 H10         -3.7640    -0.0020     1.6580 hc         1 D7S       0.035700
     40 H11         -3.8120    -1.1210     0.3100 hc         1 D7S       0.035700
     41 H12         -2.6660     0.6350    -1.1240 hc         1 D7S       0.043700
     42 H13         -1.6560     2.6040    -0.2080 hc         1 D7S       0.028700
     43 H14         -3.3230     2.6210     0.2990 hc         1 D7S       0.028700
     44 H15         -2.0750     2.1500     1.4670 hc         1 D7S       0.028700
     45 H16         -1.2240    -0.3360     1.4510 hc         1 D7S       0.042700
     46 H17         -1.7870    -2.4200     0.4550 hc         1 D7S       0.049700
     47 H18         -1.8560    -1.7710    -1.1750 hc         1 D7S       0.049700
     48 H19          0.3890    -3.1860    -0.1070 hc         1 D7S       0.039700
     49 H20          0.4150    -2.2020    -1.5700 hc         1 D7S       0.039700
     50 H21          0.9190    -1.2720     1.3360 hc         1 D7S       0.052700
     51 H22          2.6400    -2.8590    -1.0650 ha         1 D7S       0.178000
     52 H23          5.0290    -2.9920    -0.6940 hc         1 D7S       0.044200
     53 H24          4.9060    -1.7690    -1.9450 hc         1 D7S       0.044200
     54 H25         -0.2690    -0.0860    -2.3070 hc         1 D7S       0.032700
     55 H26         -0.0710     1.6000    -1.8600 hc         1 D7S       0.032700
     56 H27          1.3470     0.5640    -2.0580 hc         1 D7S       0.032700
     57 H28          0.3450     2.3230     0.5290 hc         1 D7S       0.042700
     58 H29          0.7490     1.1580     1.7720 hc         1 D7S       0.042700
     59 H30          2.4390     2.0120    -0.6320 hc         1 D7S       0.037700
     60 H31          2.7670     2.3480     1.0480 hc         1 D7S       0.037700
     61 H32          3.2710     0.0630     1.5660 hc         1 D7S       0.050700
     62 H33          5.1030     2.4230     0.9090 hc         1 D7S       0.046700
     63 H34          5.3480     1.0770     2.0050 hc         1 D7S       0.046700
     64 H35          4.5120     2.1000    -1.4830 hc         1 D7S       0.034367
     65 H36          5.7590     0.9580    -1.9330 hc         1 D7S       0.034367
     66 H37          4.0630     0.5210    -2.1280 hc         1 D7S       0.034367
     67 H38          5.2450    -1.3560     1.0750 hc         1 D7S       0.054700
     68 H39          7.3680    -1.9750    -0.0590 hc         1 D7S       0.064200
     69 H40          7.0760    -0.6840    -1.2490 hc         1 D7S       0.064200
     70 H41          7.1630     1.8870    -0.2970 hc         1 D7S       0.063700
     71 H42          7.5670     2.0820     1.4300 hc         1 D7S       0.063700
@<TRIPOS>BOND
     1     1     2 1   
     2     2     3 1   
     3     2     4 1   
     4     4     5 1   
     5     4     6 1   
     6     4    31 1   
     7     5    32 1   
     8     5    33 1   
     9     5    34 1   
    10     6     7 1   
    11     6    35 1   
    12     6    36 1   
    13     7     8 1   
    14     7    37 1   
    15     7    38 1   
    16     8     9 1   
    17     8    39 1   
    18     8    40 1   
    19     9    10 1   
    20     9    11 1   
    21     9    41 1   
    22    10    42 1   
    23    10    43 1   
    24    10    44 1   
    25    11    12 1   
    26    11    18 1   
    27    11    45 1   
    28    12    13 1   
    29    12    46 1   
    30    12    47 1   
    31    13    14 1   
    32    13    48 1   
    33    13    49 1   
    34    14    15 1   
    35    14    18 1   
    36    14    50 1   
    37    15    16 2   
    38    15    22 1   
    39    16    17 1   
    40    16    51 1   
    41    17    26 1   
    42    17    52 1   
    43    17    53 1   
    44    18    19 1   
    45    18    20 1   
    46    19    54 1   
    47    19    55 1   
    48    19    56 1   
    49    20    21 1   
    50    20    57 1   
    51    20    58 1   
    52    21    22 1   
    53    21    59 1   
    54    21    60 1   
    55    22    23 1   
    56    22    61 1   
    57    23    24 1   
    58    23    25 1   
    59    23    26 1   
    60    24    30 1   
    61    24    62 1   
    62    24    63 1   
    63    25    64 1   
    64    25    65 1   
    65    25    66 1   
    66    26    27 1   
    67    26    67 1   
    68    27    28 1   
    69    27    68 1   
    70    27    69 1   
    71    28    29 2   
    72    28    30 1   
    73    30    70 1   
    74    30    71 1   
@<TRIPOS>SUBSTRUCTURE
     1 D7S         1 TEMP              0 ****  ****    0 ROOT
