@<TRIPOS>MOLECULE
D7S
   71    74     1     0     0
SMALL
bcc


@<TRIPOS>ATOM
      1 O3          -9.8040    -0.5870    -0.1580 o          1 D7S      -0.844300
      2 C27         -8.7300    -0.7420     0.4620 c          1 D7S       0.928600
      3 O2          -8.5320    -1.5530     1.3900 o          1 D7S      -0.844300
      4 C25         -7.5670     0.1840     0.0440 c3         1 D7S      -0.191700
      5 C26         -7.9160     1.6220     0.4360 c3         1 D7S      -0.061100
      6 C24         -6.2120    -0.2520     0.5950 c3         1 D7S      -0.052400
      7 C23         -5.0220     0.5000     0.0060 c3         1 D7S      -0.079400
      8 C22         -3.6930    -0.0350     0.5300 c3         1 D7S      -0.078400
      9 C20         -2.4350     0.5830    -0.0950 c3         1 D7S      -0.050700
     10 C21         -2.3430     2.0680     0.2470 c3         1 D7S      -0.083100
     11 C17         -1.2000    -0.2140     0.3470 c5         1 D7S      -0.051700
     12 C16         -1.2720    -1.7010    -0.1010 c5         1 D7S      -0.077400
     13 C15          0.1700    -2.1600    -0.3910 c5         1 D7S      -0.071400
     14 C14          1.0150    -1.0330     0.1810 c5         1 D7S      -0.036500
     15 C8           2.4690    -0.9340    -0.1580 c2         1 D7S      -0.082400
     16 C7           3.1230    -1.8630    -0.8530 c2         1 D7S      -0.186200
     17 C6           4.6090    -1.8700    -1.0200 c6         1 D7S      -0.032200
     18 C13          0.2020     0.2400    -0.1250 c5         1 D7S      -0.035000
     19 C18          0.2030     0.5420    -1.6260 c3         1 D7S      -0.075100
     20 C12          0.8490     1.3740     0.6710 c6         1 D7S      -0.062400
     21 C11          2.3250     1.5370     0.3120 c6         1 D7S      -0.068400
     22 C9           3.1590     0.2560     0.4800 c6         1 D7S      -0.015500
     23 C10          4.6300     0.4300     0.0210 c6         1 D7S      -0.034000
     24 C1           5.3730     1.2960     1.0480 c6         1 D7S      -0.063400
     25 C19          4.7080     1.0750    -1.3680 c3         1 D7S      -0.081100
     26 C5           5.2790    -0.9680     0.0060 c6         1 D7S      -0.047700
     27 C4           6.7970    -0.9350    -0.2100 c6         1 D7S      -0.182400
     28 C3           7.4990     0.0110     0.7240 c          1 D7S       0.578100
     29 O1           8.4880    -0.3010     1.3530 o          1 D7S      -0.529100
     30 C2           6.8810     1.3800     0.8030 c6         1 D7S      -0.184400
     31 H2          -7.5090     0.1510    -1.0520 hc         1 D7S       0.024700
     32 H3          -7.1570     2.3320     0.1040 hc         1 D7S       0.011367
     33 H4          -8.8650     1.9260    -0.0040 hc         1 D7S       0.011367
     34 H5          -8.0030     1.7200     1.5210 hc         1 D7S       0.011367
     35 H6          -6.2040    -0.1450     1.6850 hc         1 D7S       0.039700
     36 H7          -6.0750    -1.3200     0.4010 hc         1 D7S       0.039700
     37 H8          -5.0420     0.4090    -1.0870 hc         1 D7S       0.026200
     38 H9          -5.1140     1.5680     0.2210 hc         1 D7S       0.026200
     39 H10         -3.6510     0.0980     1.6180 hc         1 D7S       0.035700
     40 H11         -3.6860    -1.1170     0.3650 hc         1 D7S       0.035700
     41 H12         -2.5260     0.4860    -1.1860 hc         1 D7S       0.043700
     42 H13         -1.5520     2.5720    -0.3070 hc         1 D7S       0.028700
     43 H14         -3.2710     2.5900     0.0110 hc         1 D7S       0.028700
     44 H15         -2.1450     2.2110     1.3130 hc         1 D7S       0.028700
     45 H16         -1.1790    -0.1860     1.4460 hc         1 D7S       0.042700
     46 H17         -1.7340    -2.3190     0.6690 hc         1 D7S       0.049700
     47 H18         -1.8990    -1.7980    -0.9910 hc         1 D7S       0.049700
     48 H19          0.4040    -3.1260     0.0610 hc         1 D7S       0.039700
     49 H20          0.3380    -2.2670    -1.4650 hc         1 D7S       0.039700
     50 H21          0.9790    -1.1370     1.2780 hc         1 D7S       0.052700
     51 H22          2.5770    -2.6990    -1.2790 ha         1 D7S       0.128000
     52 H23          4.9790    -2.8940    -0.9050 hc         1 D7S       0.044200
     53 H24          4.8950    -1.5710    -2.0360 hc         1 D7S       0.044200
     54 H25         -0.3800    -0.1880    -2.1890 hc         1 D7S       0.032700
     55 H26         -0.2260     1.5240    -1.8330 hc         1 D7S       0.032700
     56 H27          1.2120     0.5360    -2.0420 hc         1 D7S       0.032700
     57 H28          0.3460     2.3270     0.5020 hc         1 D7S       0.042700
     58 H29          0.7460     1.1560     1.7410 hc         1 D7S       0.042700
     59 H30          2.3940     1.8880    -0.7190 hc         1 D7S       0.037700
     60 H31          2.7560     2.3310     0.9260 hc         1 D7S       0.037700
     61 H32          3.1870     0.0410     1.5600 hc         1 D7S       0.050700
     62 H33          4.9700     2.3110     1.0550 hc         1 D7S       0.046700
     63 H34          5.2010     0.8910     2.0510 hc         1 D7S       0.046700
     64 H35          4.5040     2.1460    -1.3210 hc         1 D7S       0.034367
     65 H36          5.6950     0.9620    -1.8170 hc         1 D7S       0.034367
     66 H37          3.9880     0.6360    -2.0610 hc         1 D7S       0.034367
     67 H38          5.1000    -1.4060     0.9970 hc         1 D7S       0.054700
     68 H39          7.2140    -1.9390    -0.1050 hc         1 D7S       0.064200
     69 H40          7.0170    -0.6030    -1.2310 hc         1 D7S       0.064200
     70 H41          7.0720     1.8880    -0.1490 hc         1 D7S       0.063700
     71 H42          7.3700     1.9660     1.5830 hc         1 D7S       0.063700
@<TRIPOS>BOND
     1     1     2 1   
     2     2     3 1   
     3     2     4 1   
     4     4     5 1   
     5     4     6 1   
     6     4    31 1   
     7     5    32 1   
     8     5    33 1   
     9     5    34 1   
    10     6     7 1   
    11     6    35 1   
    12     6    36 1   
    13     7     8 1   
    14     7    37 1   
    15     7    38 1   
    16     8     9 1   
    17     8    39 1   
    18     8    40 1   
    19     9    10 1   
    20     9    11 1   
    21     9    41 1   
    22    10    42 1   
    23    10    43 1   
    24    10    44 1   
    25    11    12 1   
    26    11    18 1   
    27    11    45 1   
    28    12    13 1   
    29    12    46 1   
    30    12    47 1   
    31    13    14 1   
    32    13    48 1   
    33    13    49 1   
    34    14    15 1   
    35    14    18 1   
    36    14    50 1   
    37    15    16 2   
    38    15    22 1   
    39    16    17 1   
    40    16    51 1   
    41    17    26 1   
    42    17    52 1   
    43    17    53 1   
    44    18    19 1   
    45    18    20 1   
    46    19    54 1   
    47    19    55 1   
    48    19    56 1   
    49    20    21 1   
    50    20    57 1   
    51    20    58 1   
    52    21    22 1   
    53    21    59 1   
    54    21    60 1   
    55    22    23 1   
    56    22    61 1   
    57    23    24 1   
    58    23    25 1   
    59    23    26 1   
    60    24    30 1   
    61    24    62 1   
    62    24    63 1   
    63    25    64 1   
    64    25    65 1   
    65    25    66 1   
    66    26    27 1   
    67    26    67 1   
    68    27    28 1   
    69    27    68 1   
    70    27    69 1   
    71    28    29 2   
    72    28    30 1   
    73    30    70 1   
    74    30    71 1   
@<TRIPOS>SUBSTRUCTURE
     1 D7S         1 TEMP              0 ****  ****    0 ROOT
