@<TRIPOS>MOLECULE
D7T
   41    43     1     0     0
SMALL
abcg2


@<TRIPOS>ATOM
      1 N1          -0.0630    -0.4330    -0.8150 nh         1 D7T      -0.842400
      2 C4           1.0240    -0.2780    -1.7400 c3         1 D7T       0.279100
      3 C5           2.3860    -0.0550    -1.1160 ca         1 D7T      -0.110300
      4 C6           3.4940     0.0760    -1.9480 ca         1 D7T      -0.115000
      5 C7           4.7540     0.2790    -1.4060 ca         1 D7T      -0.105000
      6 C8           4.9210     0.3520    -0.0300 ca         1 D7T      -0.111000
      7 C13         -0.3220     1.9630    -0.5180 ca         1 D7T      -0.177000
      8 C15         -2.2230     2.8280     0.6890 ca         1 D7T      -0.150000
      9 C17         -1.9560     0.4490     0.3950 ca         1 D7T      -0.119000
     10 O           -4.4830    -0.5520    -0.0740 o          1 D7T      -0.577100
     11 C           -3.8900    -2.7960     0.4650 c3         1 D7T      -0.178100
     12 N           -2.3600    -0.8880     0.6190 n          1 D7T      -0.226400
     13 C16         -2.6570     1.5280     0.9100 ca         1 D7T      -0.055000
     14 C14         -1.0540     3.0330    -0.0300 ca         1 D7T      -0.076000
     15 C12         -0.7600     0.6440    -0.3270 ca         1 D7T       0.320000
     16 C3          -0.3570    -1.7860    -0.3880 c6         1 D7T       0.210800
     17 C2          -1.2280    -1.7690     0.8500 c6         1 D7T       0.085000
     18 C11          2.5670     0.0220     0.2600 ca         1 D7T      -0.098000
     19 C9           3.8260     0.2260     0.8210 ca         1 D7T      -0.073300
     20 H1           1.0630    -1.1770    -2.3610 h1         1 D7T       0.057200
     21 H2           0.8080     0.5380    -2.4360 h1         1 D7T       0.057200
     22 H3           3.3710     0.0200    -3.0240 ha         1 D7T       0.110000
     23 H4           5.6110     0.3790    -2.0600 ha         1 D7T       0.112000
     24 H5           5.9100     0.5110     0.3840 ha         1 D7T       0.111000
     25 H6           4.2660     1.3380     2.6090 hc         1 D7T       0.042367
     26 H7           3.0860     0.0520     2.8380 hc         1 D7T       0.042367
     27 H8           4.7970    -0.3330     2.6610 hc         1 D7T       0.042367
     28 H9           0.6020     2.1620    -1.0440 ha         1 D7T       0.118000
     29 H10         -2.7850     3.6630     1.0840 ha         1 D7T       0.116000
     30 H11         -3.2770    -3.3960    -0.2090 hc         1 D7T       0.060367
     31 H12         -3.6960    -3.1410     1.4800 hc         1 D7T       0.060367
     32 H13         -4.9350    -2.9850     0.2310 hc         1 D7T       0.060367
     33 H14         -3.5510     1.3510     1.4910 ha         1 D7T       0.127000
     34 H15         -0.6900     4.0380    -0.2020 ha         1 D7T       0.110000
     35 H16         -0.8590    -2.3440    -1.1870 h1         1 D7T       0.044700
     36 H17          0.5760    -2.3110    -0.1620 h1         1 D7T       0.044700
     37 H18         -0.6680    -1.3970     1.7110 h1         1 D7T       0.062200
     38 H19         -1.5480    -2.7770     1.0930 h1         1 D7T       0.062200
     39 H20          1.7110    -0.0750     0.9190 ha         1 D7T       0.117000
     40 C10          3.9990     0.3220     2.3100 c3         1 D7T      -0.046800
     41 C1          -3.6160    -1.3200     0.3060 c          1 D7T       0.608100
@<TRIPOS>BOND
     1     1     2 1   
     2     1    15 1   
     3     1    16 1   
     4     2     3 1   
     5     2    20 1   
     6     2    21 1   
     7     3     4 ar  
     8     3    18 ar  
     9     4     5 ar  
    10     4    22 1   
    11     5     6 ar  
    12     5    23 1   
    13     6    19 ar  
    14     6    24 1   
    15     7    14 ar  
    16     7    15 ar  
    17     7    28 1   
    18     8    13 ar  
    19     8    14 ar  
    20     8    29 1   
    21     9    12 1   
    22     9    13 ar  
    23     9    15 ar  
    24    10    41 2   
    25    11    30 1   
    26    11    31 1   
    27    11    32 1   
    28    11    41 1   
    29    12    17 1   
    30    12    41 1   
    31    13    33 1   
    32    14    34 1   
    33    16    17 1   
    34    16    35 1   
    35    16    36 1   
    36    17    37 1   
    37    17    38 1   
    38    18    19 ar  
    39    18    39 1   
    40    19    40 1   
    41    25    40 1   
    42    26    40 1   
    43    27    40 1   
@<TRIPOS>SUBSTRUCTURE
     1 D7T         1 TEMP              0 ****  ****    0 ROOT
