@<TRIPOS>MOLECULE
D7T
   41    43     1     0     0
SMALL
No Charge or Current Charge


@<TRIPOS>ATOM
      1 N1           0.0070    -0.6560    -1.2410 nh         1 D7T      -0.842400
      2 C4           1.3330    -0.6290    -1.9110 c3         1 D7T       0.279100
      3 C5           2.4590    -0.0440    -1.0570 ca         1 D7T      -0.110300
      4 C6           3.2940     0.9650    -1.5750 ca         1 D7T      -0.115000
      5 C7           4.3290     1.5010    -0.7910 ca         1 D7T      -0.105000
      6 C8           4.5380     1.0310     0.5170 ca         1 D7T      -0.111000
      7 C13         -0.2400     1.8000    -1.2290 ca         1 D7T      -0.177000
      8 C15         -1.9370     2.8770     0.1280 ca         1 D7T      -0.150000
      9 C17         -1.6960     0.4400     0.1890 ca         1 D7T      -0.119000
     10 O           -4.4780    -0.3770     0.3200 o          1 D7T      -0.577100
     11 C           -4.0310    -2.4290     1.4450 c3         1 D7T      -0.178100
     12 N           -2.2220    -0.8610     0.5660 n          1 D7T      -0.226400
     13 C16         -2.3580     1.6220     0.5920 ca         1 D7T      -0.055000
     14 C14         -0.8760     2.9670    -0.7800 ca         1 D7T      -0.076000
     15 C12         -0.6400     0.5270    -0.7660 ca         1 D7T       0.320000
     16 C3          -0.5310    -1.9940    -0.8580 c6         1 D7T       0.210800
     17 C2          -1.2170    -1.9530     0.5240 c6         1 D7T       0.085000
     18 C11          2.6790    -0.5140     0.2540 ca         1 D7T      -0.098000
     19 C9           3.7120     0.0230     1.0460 ca         1 D7T      -0.073300
     20 H1           1.6290    -1.6470    -2.2020 h1         1 D7T       0.057200
     21 H2           1.2540    -0.0660    -2.8520 h1         1 D7T       0.057200
     22 H3           3.1430     1.3360    -2.5870 ha         1 D7T       0.110000
     23 H4           4.9710     2.2800    -1.1970 ha         1 D7T       0.112000
     24 H5           5.3420     1.4510     1.1170 ha         1 D7T       0.111000
     25 H6           4.3930     0.2760     3.0980 hc         1 D7T       0.042367
     26 H7           2.9920    -0.7890     2.9310 hc         1 D7T       0.042367
     27 H8           4.6000    -1.3630     2.4580 hc         1 D7T       0.042367
     28 H9           0.5600     1.9000    -1.9530 ha         1 D7T       0.118000
     29 H10         -2.4410     3.7790     0.4660 ha         1 D7T       0.116000
     30 H11         -3.8430    -3.2870     0.7900 hc         1 D7T       0.060367
     31 H12         -3.3700    -2.6070     2.3000 hc         1 D7T       0.060367
     32 H13         -5.0870    -2.4100     1.7370 hc         1 D7T       0.060367
     33 H14         -3.1880     1.5790     1.2930 ha         1 D7T       0.127000
     34 H15         -0.5540     3.9400    -1.1480 ha         1 D7T       0.110000
     35 H16         -1.2600    -2.3270    -1.6110 h1         1 D7T       0.044700
     36 H17          0.2720    -2.7460    -0.8230 h1         1 D7T       0.044700
     37 H18         -0.4600    -1.7630     1.2970 h1         1 D7T       0.062200
     38 H19         -1.6530    -2.9380     0.7290 h1         1 D7T       0.062200
     39 H20          2.0410    -1.2950     0.6600 ha         1 D7T       0.117000
     40 C10          3.9360    -0.4900     2.4600 c3         1 D7T      -0.046800
     41 C1          -3.6100    -1.1490     0.7120 c          1 D7T       0.608100
@<TRIPOS>BOND
     1     1     2 1   
     2     1    15 1   
     3     1    16 1   
     4     2     3 1   
     5     2    20 1   
     6     2    21 1   
     7     3     4 ar  
     8     3    18 ar  
     9     4     5 ar  
    10     4    22 1   
    11     5     6 ar  
    12     5    23 1   
    13     6    19 ar  
    14     6    24 1   
    15     7    14 ar  
    16     7    15 ar  
    17     7    28 1   
    18     8    13 ar  
    19     8    14 ar  
    20     8    29 1   
    21     9    12 1   
    22     9    13 ar  
    23     9    15 ar  
    24    10    41 2   
    25    11    30 1   
    26    11    31 1   
    27    11    32 1   
    28    11    41 1   
    29    12    17 1   
    30    12    41 1   
    31    13    33 1   
    32    14    34 1   
    33    16    17 1   
    34    16    35 1   
    35    16    36 1   
    36    17    37 1   
    37    17    38 1   
    38    18    19 ar  
    39    18    39 1   
    40    19    40 1   
    41    25    40 1   
    42    26    40 1   
    43    27    40 1   
@<TRIPOS>SUBSTRUCTURE
     1 D7T         1 TEMP              0 ****  ****    0 ROOT
