@<TRIPOS>MOLECULE
D7U
   48    51     1     0     0
SMALL
No Charge or Current Charge


@<TRIPOS>ATOM
      1 C10        -12.0760    -3.5260    -2.0140 c3         1 D7U      -0.020800
      2 C13         -7.8020    -7.1470    -1.7470 ca         1 D7U      -0.004000
      3 C15         -6.2240    -8.1970    -0.2450 ca         1 D7U       0.417900
      4 C17         -8.2520    -7.4760     0.6100 ca         1 D7U       0.597300
      5 C22         -4.2860    -9.4960    -4.7100 c3         1 D7U      -0.339100
      6 C26         -8.5900    -7.5590     5.3350 ca         1 D7U      -0.162000
      7 C28         -7.3160    -5.6570     4.5000 ca         1 D7U      -0.193000
      8 N1         -13.9130    -7.1400     0.0550 ns         1 D7U      -0.402100
      9 C2         -12.9760    -8.1320     0.3830 cc         1 D7U      -0.087400
     10 C3         -11.6130    -7.9960     0.1190 cd         1 D7U      -0.203100
     11 N4         -11.2650    -6.7790    -0.4770 na         1 D7U       0.176100
     12 C5         -12.2010    -5.8260    -0.8270 cc         1 D7U      -0.254600
     13 C6         -13.6340    -5.9440    -0.5660 c          1 D7U       0.603600
     14 C7          -9.9890    -6.3870    -0.8660 cc         1 D7U      -0.093000
     15 C8         -10.1390    -5.1660    -1.4670 cd         1 D7U      -0.165000
     16 C09        -11.5130    -4.8040    -1.4490 cd         1 D7U      -0.058300
     17 O11        -14.4950    -5.1250    -0.8450 o          1 D7U      -0.542000
     18 C12         -8.6830    -7.0190    -0.6600 ca         1 D7U      -0.083000
     19 C14         -6.5490    -7.7480    -1.5400 ca         1 D7U      -0.180300
     20 N16         -7.0510    -8.0650     0.8120 nb         1 D7U      -0.733000
     21 C19         -8.6230    -7.0310     2.9570 ca         1 D7U       0.048100
     22 S21         -5.5130    -9.5910    -3.4080 s6         1 D7U       1.069000
     23 O23         -5.0020   -10.5030    -2.3770 o          1 D7U      -0.512500
     24 O24         -6.8120    -9.8660    -4.0350 o          1 D7U      -0.512500
     25 C25         -9.0420    -7.8360     4.0320 ca         1 D7U      -0.057000
     26 C27         -7.7280    -6.4740     5.5630 ca         1 D7U       0.204000
     27 C29         -7.7650    -5.9320     3.1980 ca         1 D7U       0.212000
     28 F30         -7.3830    -5.1170     2.1870 f          1 D7U      -0.156000
     29 F31         -7.2980    -6.2100     6.8150 f          1 D7U      -0.169000
     30 H101       -12.8080    -3.7340    -2.8030 hc         1 D7U       0.046700
     31 H102       -12.5760    -2.9390    -1.2350 hc         1 D7U       0.046700
     32 H103       -11.2870    -2.9010    -2.4480 hc         1 D7U       0.046700
     33 H131        -8.0930    -6.7970    -2.7350 ha         1 D7U       0.142000
     34 H151        -5.2630    -8.6710    -0.0470 h4         1 D7U       0.032100
     35 H202        -4.5440    -7.6970    -2.3800 h1         1 D7U       0.099700
     36 H201        -5.8230    -7.2510    -3.5350 h1         1 D7U       0.099700
     37 H222        -3.3350    -9.2030    -4.2540 h1         1 D7U       0.105033
     38 H221        -4.2150   -10.4870    -5.1700 h1         1 D7U       0.105033
     39 H223        -4.6260    -8.7480    -5.4360 h1         1 D7U       0.105033
     40 H261        -8.9070    -8.1820     6.1680 ha         1 D7U       0.141000
     41 H281        -6.6590    -4.8130     4.6840 ha         1 D7U       0.153000
     42 H021       -13.4300    -9.0040     0.8500 h4         1 D7U       0.210000
     43 H031       -10.8400    -8.7250     0.3310 h4         1 D7U       0.225000
     44 H081        -9.3350    -4.5620    -1.8760 ha         1 D7U       0.136000
     45 H251        -9.7110    -8.6750     3.8520 ha         1 D7U       0.130000
     46 H2         -14.8940    -7.2850     0.2660 hn         1 D7U       0.331500
     47 O18         -9.0900    -7.3200     1.6920 os         1 D7U      -0.341400
     48 C20         -5.5660    -7.9200    -2.7050 c3         1 D7U      -0.216100
@<TRIPOS>BOND
     1     1    16 1   
     2     1    30 1   
     3     1    31 1   
     4     1    32 1   
     5     2    18 ar  
     6     2    19 ar  
     7     2    33 1   
     8     3    19 ar  
     9     3    20 ar  
    10     3    34 1   
    11     4    18 ar  
    12     4    20 ar  
    13     4    47 1   
    14     5    22 1   
    15     5    37 1   
    16     5    38 1   
    17     5    39 1   
    18     6    25 ar  
    19     6    26 ar  
    20     6    40 1   
    21     7    26 ar  
    22     7    27 ar  
    23     7    41 1   
    24     8     9 1   
    25     8    13 1   
    26     8    46 1   
    27     9    10 2   
    28     9    42 1   
    29    10    11 1   
    30    10    43 1   
    31    11    12 1   
    32    11    14 1   
    33    12    13 1   
    34    12    16 2   
    35    13    17 2   
    36    14    15 2   
    37    14    18 1   
    38    15    16 1   
    39    15    44 1   
    40    19    48 1   
    41    21    25 ar  
    42    21    27 ar  
    43    21    47 1   
    44    22    23 2   
    45    22    24 2   
    46    22    48 1   
    47    25    45 1   
    48    26    29 1   
    49    27    28 1   
    50    35    48 1   
    51    36    48 1   
@<TRIPOS>SUBSTRUCTURE
     1 D7U         1 TEMP              0 ****  ****    0 ROOT
