@<TRIPOS>MOLECULE
D7U
   48    51     1     0     0
SMALL
abcg2


@<TRIPOS>ATOM
      1 C10        -12.4290    -3.6430    -2.2470 c3         1 D7U      -0.020800
      2 C13         -7.7150    -6.9290    -1.7760 ca         1 D7U      -0.004000
      3 C15         -6.0900    -7.6140    -0.1880 ca         1 D7U       0.417900
      4 C17         -8.0710    -6.8140     0.5600 ca         1 D7U       0.597300
      5 C22         -4.7550    -9.9110    -4.3680 c3         1 D7U      -0.339100
      6 C26         -8.7020    -7.8980     4.9350 ca         1 D7U      -0.162000
      7 C28         -7.1720    -6.0250     4.7820 ca         1 D7U      -0.193000
      8 N1         -13.5590    -7.4240     0.0790 ns         1 D7U      -0.402100
      9 C2         -12.4770    -8.2100     0.4030 cc         1 D7U      -0.087400
     10 C3         -11.2290    -7.8380     0.1030 cd         1 D7U      -0.203100
     11 N4         -11.0460    -6.6280    -0.5500 na         1 D7U       0.176100
     12 C5         -12.1210    -5.8480    -0.9380 cc         1 D7U      -0.254600
     13 C6         -13.4710    -6.2390    -0.6020 c          1 D7U       0.603600
     14 C7          -9.8970    -6.0480    -0.9810 cc         1 D7U      -0.093000
     15 C8         -10.2420    -4.8940    -1.6630 cd         1 D7U      -0.165000
     16 C09        -11.6400    -4.7540    -1.6390 cd         1 D7U      -0.058300
     17 O11        -14.4630    -5.5820    -0.8890 o          1 D7U      -0.542000
     18 C12         -8.5700    -6.6100    -0.7350 ca         1 D7U      -0.083000
     19 C14         -6.4430    -7.4340    -1.5150 ca         1 D7U      -0.180300
     20 N16         -6.8880    -7.3040     0.8270 nb         1 D7U      -0.733000
     21 C19         -8.4800    -6.6910     2.8650 ca         1 D7U       0.048100
     22 S21         -5.9220    -9.5350    -3.0830 s6         1 D7U       1.069000
     23 O23         -5.6550   -10.3920    -1.9290 o          1 D7U      -0.512500
     24 O24         -7.2720    -9.5440    -3.6450 o          1 D7U      -0.512500
     25 C25         -9.0520    -7.7090     3.6050 ca         1 D7U      -0.057000
     26 C27         -7.7660    -7.0520     5.4940 ca         1 D7U       0.204000
     27 C29         -7.5470    -5.8600     3.4660 ca         1 D7U       0.212000
     28 F30         -7.0050    -4.8760     2.7480 f          1 D7U      -0.156000
     29 F31         -7.4150    -7.2230     6.7750 f          1 D7U      -0.169000
     30 H101       -13.1590    -4.0130    -2.9670 hc         1 D7U       0.046700
     31 H102       -12.9810    -3.0790    -1.4950 hc         1 D7U       0.046700
     32 H103       -11.7680    -2.9500    -2.7660 hc         1 D7U       0.046700
     33 H131        -8.0470    -6.7800    -2.7950 ha         1 D7U       0.142000
     34 H151        -5.1160    -8.0120     0.0730 h4         1 D7U       0.032100
     35 H202        -4.4760    -7.8250    -2.3070 h1         1 D7U       0.099700
     36 H201        -5.6330    -7.2170    -3.5050 h1         1 D7U       0.099700
     37 H222        -3.7460    -9.8500    -3.9690 h1         1 D7U       0.105033
     38 H221        -4.9620   -10.9260    -4.7060 h1         1 D7U       0.105033
     39 H223        -4.8860    -9.2120    -5.1910 h1         1 D7U       0.105033
     40 H261        -9.1520    -8.6890     5.5180 ha         1 D7U       0.141000
     41 H281        -6.4410    -5.3700     5.2390 ha         1 D7U       0.153000
     42 H021       -12.6890    -9.1420     0.9020 h4         1 D7U       0.210000
     43 H031       -10.3680    -8.4490     0.3160 h4         1 D7U       0.225000
     44 H081        -9.5390    -4.2110    -2.1160 ha         1 D7U       0.136000
     45 H251        -9.7860    -8.3560     3.1410 ha         1 D7U       0.130000
     46 H2         -14.4820    -7.7500     0.3250 hn         1 D7U       0.331500
     47 O18         -8.8880    -6.4680     1.5770 os         1 D7U      -0.341400
     48 C20         -5.5220    -7.8360    -2.6150 c3         1 D7U      -0.216100
@<TRIPOS>BOND
     1     1    16 1   
     2     1    30 1   
     3     1    31 1   
     4     1    32 1   
     5     2    18 ar  
     6     2    19 ar  
     7     2    33 1   
     8     3    19 ar  
     9     3    20 ar  
    10     3    34 1   
    11     4    18 ar  
    12     4    20 ar  
    13     4    47 1   
    14     5    22 1   
    15     5    37 1   
    16     5    38 1   
    17     5    39 1   
    18     6    25 ar  
    19     6    26 ar  
    20     6    40 1   
    21     7    26 ar  
    22     7    27 ar  
    23     7    41 1   
    24     8     9 1   
    25     8    13 1   
    26     8    46 1   
    27     9    10 2   
    28     9    42 1   
    29    10    11 1   
    30    10    43 1   
    31    11    12 1   
    32    11    14 1   
    33    12    13 1   
    34    12    16 2   
    35    13    17 2   
    36    14    15 2   
    37    14    18 1   
    38    15    16 1   
    39    15    44 1   
    40    19    48 1   
    41    21    25 ar  
    42    21    27 ar  
    43    21    47 1   
    44    22    23 2   
    45    22    24 2   
    46    22    48 1   
    47    25    45 1   
    48    26    29 1   
    49    27    28 1   
    50    35    48 1   
    51    36    48 1   
@<TRIPOS>SUBSTRUCTURE
     1 D7U         1 TEMP              0 ****  ****    0 ROOT
