@<TRIPOS>MOLECULE
D7V
   42    44     1     0     0
SMALL
bcc


@<TRIPOS>ATOM
      1 C1           4.7210     0.1420    -0.1120 c3         1 D7V       0.148600
      2 N1           4.3490    -1.2180    -0.4420 n3         1 D7V      -0.710600
      3 O1          -1.7760     1.6980    -1.3210 os         1 D7V      -0.325900
      4 C2           5.2020    -2.1570     0.2550 c3         1 D7V       0.148600
      5 C3           2.9520    -1.4880    -0.1630 c3         1 D7V       0.167800
      6 C4           1.9900    -0.7470    -1.0940 c3         1 D7V      -0.049200
      7 C5           0.5760    -1.1440    -0.8170 c2         1 D7V      -0.136200
      8 C6          -0.3690    -0.3940    -0.2390 ce         1 D7V      -0.007400
      9 C7          -1.7270    -0.9430     0.0080 ca         1 D7V      -0.025800
     10 C8          -1.8310    -2.2340     0.5390 ca         1 D7V      -0.122000
     11 C9          -3.0560    -2.8180     0.8080 ca         1 D7V      -0.127000
     12 C10         -4.2210    -2.1070     0.5550 ca         1 D7V      -0.122000
     13 C11         -4.1340    -0.8270     0.0370 ca         1 D7V      -0.132000
     14 C12         -2.9060    -0.2280    -0.2390 ca         1 D7V      -0.097300
     15 C13         -2.9810     1.1730    -0.8020 c3         1 D7V       0.186700
     16 C14         -0.8530     2.0220    -0.3700 ca         1 D7V       0.107100
     17 C15         -0.1130     0.9950     0.2070 ca         1 D7V      -0.065800
     18 C16         -0.6450     3.3470    -0.0200 ca         1 D7V      -0.140000
     19 C17          0.3220     3.6570     0.9280 ca         1 D7V      -0.117000
     20 C18          1.0620     2.6440     1.5230 ca         1 D7V      -0.138000
     21 C19          0.8430     1.3210     1.1640 ca         1 D7V      -0.106000
     22 H1           5.7780     0.2990    -0.3320 h1         1 D7V       0.030367
     23 H1A          4.1570     0.8610    -0.7060 h1         1 D7V       0.030367
     24 H1B          4.5590     0.3860     0.9510 h1         1 D7V       0.030367
     25 H2           5.1200    -2.0880     1.3520 h1         1 D7V       0.030367
     26 H2A          4.9540    -3.1790    -0.0330 h1         1 D7V       0.030367
     27 H2B          6.2460    -1.9810    -0.0080 h1         1 D7V       0.030367
     28 H3           2.7860    -2.5620    -0.2840 h1         1 D7V       0.028200
     29 H3A          2.6950    -1.2520     0.8850 h1         1 D7V       0.028200
     30 H4           2.1080     0.3330    -1.0010 hc         1 D7V       0.060700
     31 H4A          2.2410    -1.0120    -2.1250 hc         1 D7V       0.060700
     32 H5           0.3050    -2.1500    -1.1260 ha         1 D7V       0.124000
     33 H8          -0.9230    -2.7780     0.7650 ha         1 D7V       0.131000
     34 H9          -3.0990    -3.8160     1.2240 ha         1 D7V       0.132000
     35 H10         -5.1890    -2.5450     0.7600 ha         1 D7V       0.132000
     36 H11         -5.0450    -0.2740    -0.1660 ha         1 D7V       0.127000
     37 H13         -3.3830     1.8450    -0.0330 h1         1 D7V       0.057200
     38 H13A        -3.6900     1.1830    -1.6310 h1         1 D7V       0.057200
     39 H16         -1.2300     4.1280    -0.4910 ha         1 D7V       0.143000
     40 H17          0.4920     4.6890     1.2040 ha         1 D7V       0.133000
     41 H18          1.8120     2.8820     2.2660 ha         1 D7V       0.132000
     42 H19          1.4190     0.5340     1.6370 ha         1 D7V       0.135000
@<TRIPOS>BOND
     1     1     2 1   
     2     1    22 1   
     3     1    23 1   
     4     1    24 1   
     5     2     4 1   
     6     2     5 1   
     7     3    15 1   
     8     3    16 1   
     9     4    25 1   
    10     4    26 1   
    11     4    27 1   
    12     5     6 1   
    13     5    28 1   
    14     5    29 1   
    15     6     7 1   
    16     6    30 1   
    17     6    31 1   
    18     7     8 2   
    19     7    32 1   
    20     8     9 1   
    21     8    17 1   
    22     9    10 ar  
    23     9    14 ar  
    24    10    11 ar  
    25    10    33 1   
    26    11    12 ar  
    27    11    34 1   
    28    12    13 ar  
    29    12    35 1   
    30    13    14 ar  
    31    13    36 1   
    32    14    15 1   
    33    15    37 1   
    34    15    38 1   
    35    16    17 ar  
    36    16    18 ar  
    37    17    21 ar  
    38    18    19 ar  
    39    18    39 1   
    40    19    20 ar  
    41    19    40 1   
    42    20    21 ar  
    43    20    41 1   
    44    21    42 1   
@<TRIPOS>SUBSTRUCTURE
     1 D7V         1 TEMP              0 ****  ****    0 ROOT
