@<TRIPOS>MOLECULE
D7V
   42    44     1     0     0
SMALL
No Charge or Current Charge


@<TRIPOS>ATOM
      1 C1           4.8030     0.2150    -0.3510 c3         1 D7V       0.148600
      2 N1           4.4190    -1.2140    -0.4550 n3         1 D7V      -0.710600
      3 O1          -1.7550     1.7350    -1.2840 os         1 D7V      -0.349100
      4 C2           5.3260    -2.0820     0.3300 c3         1 D7V       0.148600
      5 C3           2.9910    -1.4750    -0.1400 c3         1 D7V       0.167800
      6 C4           1.9750    -0.8020    -1.0920 c3         1 D7V      -0.049200
      7 C5           0.5400    -1.1930    -0.7750 c2         1 D7V      -0.186200
      8 C6          -0.4100    -0.4340    -0.1750 ce         1 D7V      -0.007400
      9 C7          -1.7950    -0.9540     0.0330 ca         1 D7V      -0.025800
     10 C8          -1.9210    -2.2510     0.5800 ca         1 D7V      -0.104000
     11 C9          -3.1800    -2.8210     0.8170 ca         1 D7V      -0.109000
     12 C10         -4.3380    -2.0980     0.5120 ca         1 D7V      -0.104000
     13 C11         -4.2330    -0.8090    -0.0290 ca         1 D7V      -0.114000
     14 C12         -2.9760    -0.2140    -0.2780 ca         1 D7V      -0.097300
     15 C13         -3.0270     1.2030    -0.8850 c3         1 D7V       0.209900
     16 C14         -0.8250     2.0110    -0.3220 ca         1 D7V       0.107100
     17 C15         -0.1400     0.9520     0.2830 ca         1 D7V      -0.065800
     18 C16         -0.5560     3.3410     0.0390 ca         1 D7V      -0.122000
     19 C17          0.3970     3.6140     1.0360 ca         1 D7V      -0.099000
     20 C18          1.0770     2.5540     1.6620 ca         1 D7V      -0.120000
     21 C19          0.8110     1.2250     1.2860 ca         1 D7V      -0.088000
     22 H1           5.8710     0.3460    -0.5740 h1         1 D7V       0.030367
     23 H1A          4.2430     0.8320    -1.0650 h1         1 D7V       0.030367
     24 H1B          4.6160     0.5990     0.6610 h1         1 D7V       0.030367
     25 H2           5.2450    -1.8630     1.4040 h1         1 D7V       0.030367
     26 H2A          5.0800    -3.1410     0.1760 h1         1 D7V       0.030367
     27 H2B          6.3700    -1.9310     0.0250 h1         1 D7V       0.030367
     28 H3           2.8070    -2.5570    -0.1820 h1         1 D7V       0.028200
     29 H3A          2.7750    -1.1580     0.8890 h1         1 D7V       0.028200
     30 H4           2.0900     0.2860    -1.0560 hc         1 D7V       0.060700
     31 H4A          2.2140    -1.0980    -2.1210 hc         1 D7V       0.060700
     32 H5           0.2880    -2.1990    -1.1140 ha         1 D7V       0.174000
     33 H8          -1.0310    -2.8210     0.8360 ha         1 D7V       0.113000
     34 H9          -3.2550    -3.8200     1.2410 ha         1 D7V       0.114000
     35 H10         -5.3180    -2.5350     0.6950 ha         1 D7V       0.114000
     36 H11         -5.1450    -0.2620    -0.2610 ha         1 D7V       0.109000
     37 H13         -3.4970     1.8760    -0.1560 h1         1 D7V       0.057200
     38 H13A        -3.6910     1.1730    -1.7580 h1         1 D7V       0.057200
     39 H16         -1.0890     4.1540    -0.4470 ha         1 D7V       0.125000
     40 H17          0.6070     4.6420     1.3230 ha         1 D7V       0.115000
     41 H18          1.8130     2.7620     2.4350 ha         1 D7V       0.114000
     42 H19          1.3410     0.4100     1.7710 ha         1 D7V       0.117000
@<TRIPOS>BOND
     1     1     2 1   
     2     1    22 1   
     3     1    23 1   
     4     1    24 1   
     5     2     4 1   
     6     2     5 1   
     7     3    15 1   
     8     3    16 1   
     9     4    25 1   
    10     4    26 1   
    11     4    27 1   
    12     5     6 1   
    13     5    28 1   
    14     5    29 1   
    15     6     7 1   
    16     6    30 1   
    17     6    31 1   
    18     7     8 2   
    19     7    32 1   
    20     8     9 1   
    21     8    17 1   
    22     9    10 ar  
    23     9    14 ar  
    24    10    11 ar  
    25    10    33 1   
    26    11    12 ar  
    27    11    34 1   
    28    12    13 ar  
    29    12    35 1   
    30    13    14 ar  
    31    13    36 1   
    32    14    15 1   
    33    15    37 1   
    34    15    38 1   
    35    16    17 ar  
    36    16    18 ar  
    37    17    21 ar  
    38    18    19 ar  
    39    18    39 1   
    40    19    20 ar  
    41    19    40 1   
    42    20    21 ar  
    43    20    41 1   
    44    21    42 1   
@<TRIPOS>SUBSTRUCTURE
     1 D7V         1 TEMP              0 ****  ****    0 ROOT
