@<TRIPOS>MOLECULE
D7W
   29    30     1     0     0
SMALL
abcg2


@<TRIPOS>ATOM
      1 C13          2.6060    -0.1630    -0.3030 ca         1 D7W      -0.119000
      2 C15          4.7380     0.8530     0.2740 ca         1 D7W      -0.125000
      3 C17          2.6880     2.0940     0.5390 ca         1 D7W      -0.167000
      4 C03         -5.0540    -0.2270     0.0030 c5         1 D7W       0.065800
      5 C04         -4.2750    -1.4900     0.3450 c          1 D7W       0.691500
      6 C07         -2.8320     0.0510    -0.0180 c2         1 D7W       0.740800
      7 C09         -0.3820     0.1950    -0.0420 c          1 D7W       0.674100
      8 C12          1.9470     1.0060     0.0750 ca         1 D7W      -0.004000
      9 C14          3.9870    -0.2130    -0.1910 ca         1 D7W       0.146000
     10 C16          4.0660     2.0130     0.6330 ca         1 D7W      -0.074000
     11 N02         -3.9800     0.7010    -0.2360 nh         1 D7W      -0.803600
     12 N06         -2.9390    -1.2200     0.3110 ne         1 D7W      -0.707100
     13 N08         -1.6650     0.7350    -0.1310 ns         1 D7W      -0.442400
     14 N11          0.5630     1.1760    -0.0180 ns         1 D7W      -0.165000
     15 O10         -0.1540    -0.9900    -0.0060 o          1 D7W      -0.514100
     16 CL1          4.7960    -1.6730    -0.6650 cl         1 D7W      -0.193000
     17 H1           2.0700    -1.0150    -0.6850 ha         1 D7W       0.162000
     18 H2           5.8140     0.7840     0.3530 ha         1 D7W       0.134000
     19 H3           2.1820     3.0060     0.8330 ha         1 D7W       0.112000
     20 H4          -3.9060     2.7500     0.2650 h1         1 D7W       0.046033
     21 H5          -3.5540     2.3730    -1.4380 h1         1 D7W       0.046033
     22 H6          -5.1950     2.2590    -0.8310 h1         1 D7W       0.046033
     23 H7          -5.6820    -0.3620    -0.8810 h1         1 D7W       0.082700
     24 H8          -5.6900     0.0870     0.8350 h1         1 D7W       0.082700
     25 H9           4.6250     2.8640     0.9960 ha         1 D7W       0.120000
     26 H10         -1.7400     1.7290    -0.2860 hn         1 D7W       0.319500
     27 H11          0.2500     2.1300     0.0820 hn         1 D7W       0.147000
     28 O05         -4.7780    -2.5640     0.6120 o          1 D7W      -0.521100
     29 C01         -4.1540     2.0940    -0.5710 c3         1 D7W       0.220100
@<TRIPOS>BOND
     1     1     8 ar  
     2     1     9 ar  
     3     1    17 1   
     4     2     9 ar  
     5     2    10 ar  
     6     2    18 1   
     7     3     8 ar  
     8     3    10 ar  
     9     3    19 1   
    10     4     5 1   
    11     4    11 1   
    12     4    23 1   
    13     4    24 1   
    14     5    12 1   
    15     5    28 2   
    16     6    11 1   
    17     6    12 2   
    18     6    13 1   
    19     7    13 1   
    20     7    14 1   
    21     7    15 2   
    22     8    14 1   
    23     9    16 1   
    24    10    25 1   
    25    11    29 1   
    26    13    26 1   
    27    14    27 1   
    28    20    29 1   
    29    21    29 1   
    30    22    29 1   
@<TRIPOS>SUBSTRUCTURE
     1 D7W         1 TEMP              0 ****  ****    0 ROOT
