@<TRIPOS>MOLECULE
D7W
   29    30     1     0     0
SMALL
No Charge or Current Charge


@<TRIPOS>ATOM
      1 C13          2.6840    -0.1670    -0.1990 ca         1 D7W      -0.119000
      2 C15          4.7790     1.0280     0.1460 ca         1 D7W      -0.125000
      3 C17          2.6580     2.1320     0.5860 ca         1 D7W      -0.167000
      4 C03         -5.1510    -0.0670     0.1280 c5         1 D7W       0.065800
      5 C04         -4.5380    -1.5010     0.2000 c          1 D7W       0.691500
      6 C07         -2.8810    -0.0960    -0.0080 c2         1 D7W       0.740800
      7 C09         -0.4440     0.0860    -0.0420 c          1 D7W       0.674100
      8 C12          1.9530     0.9710     0.2110 ca         1 D7W      -0.004000
      9 C14          4.0880    -0.1340    -0.2290 ca         1 D7W       0.146000
     10 C16          4.0630     2.1640     0.5550 ca         1 D7W      -0.074000
     11 N02         -3.9280     0.7840    -0.0240 nh         1 D7W      -0.803600
     12 N06         -3.1630    -1.3260     0.1800 ne         1 D7W      -0.707100
     13 N08         -1.7020     0.5690     0.1680 ns         1 D7W      -0.442400
     14 N11          0.5330     1.0190     0.2700 ns         1 D7W      -0.165000
     15 O10         -0.2210    -1.0370    -0.4700 o          1 D7W      -0.514100
     16 Cl1          4.9860    -1.5570    -0.7400 cl         1 D7W      -0.193000
     17 H1           2.1910    -1.0860    -0.4950 ha         1 D7W       0.162000
     18 H2           5.8660     1.0470     0.1200 ha         1 D7W       0.134000
     19 H3           2.1140     3.0190     0.9050 ha         1 D7W       0.112000
     20 H4          -3.1740     2.7290    -0.5050 h1         1 D7W       0.046033
     21 H5          -3.8080     1.8040    -1.8910 h1         1 D7W       0.046033
     22 H6          -4.9260     2.5340    -0.7140 h1         1 D7W       0.046033
     23 H7          -5.8300    -0.0110    -0.7330 h1         1 D7W       0.082700
     24 H8          -5.6970     0.1340     1.0590 h1         1 D7W       0.082700
     25 H9           4.5940     3.0670     0.8480 ha         1 D7W       0.120000
     26 H10         -1.7870     1.5180     0.4870 hn         1 D7W       0.319500
     27 H11          0.1740     1.9030     0.6070 hn         1 D7W       0.147000
     28 O05         -5.1220    -2.5730     0.2590 o          1 D7W      -0.521100
     29 C01         -3.9570     2.0300    -0.8270 c3         1 D7W       0.220100
@<TRIPOS>BOND
     1     1     8 ar  
     2     1     9 ar  
     3     1    17 1   
     4     2     9 ar  
     5     2    10 ar  
     6     2    18 1   
     7     3     8 ar  
     8     3    10 ar  
     9     3    19 1   
    10     4     5 1   
    11     4    11 1   
    12     4    23 1   
    13     4    24 1   
    14     5    12 1   
    15     5    28 2   
    16     6    11 1   
    17     6    12 2   
    18     6    13 1   
    19     7    13 1   
    20     7    14 1   
    21     7    15 2   
    22     8    14 1   
    23     9    16 1   
    24    10    25 1   
    25    11    29 1   
    26    13    26 1   
    27    14    27 1   
    28    20    29 1   
    29    21    29 1   
    30    22    29 1   
@<TRIPOS>SUBSTRUCTURE
     1 D7W         1 TEMP              0 ****  ****    0 ROOT
