@<TRIPOS>MOLECULE
D7Y
   59    59     1     0     0
SMALL
No Charge or Current Charge


@<TRIPOS>ATOM
      1 C15         -7.3490    -2.2620     1.0670 c3         1 D7Y      -0.108767
      2 C17         -5.7760    -3.2630    -0.7260 c3         1 D7Y      -0.108767
      3 C21          4.9980    -0.3400     0.5120 c3         1 D7Y       0.157300
      4 C22          4.6090    -1.7690     0.8490 ca         1 D7Y      -0.167300
      5 C24          3.6040    -3.8870     0.2800 ca         1 D7Y      -0.165000
      6 C02          3.1620     4.0840    -0.3340 c3         1 D7Y       0.178500
      7 C03          3.2250     5.2790    -1.3050 c3         1 D7Y      -0.092100
      8 C06          0.5170     1.2430    -0.3860 c3         1 D7Y       0.060600
      9 C08         -2.3130     1.0870    -0.2760 c3         1 D7Y       0.009600
     10 C09         -3.6750     1.6230     0.2060 c3         1 D7Y       0.132000
     11 O12         -4.5180    -1.0350     1.0030 o          1 D7Y      -0.548000
     12 C14         -6.8050    -2.1550    -0.3810 c3         1 D7Y       0.224000
     13 C16         -7.9760    -2.1930    -1.3870 c3         1 D7Y      -0.108767
     14 C18          3.0430     0.9530    -0.4110 c          1 D7Y       0.557100
     15 O19          3.2430     0.5760    -1.5590 o          1 D7Y      -0.604100
     16 C23          3.9380    -2.5740    -0.0890 ca         1 D7Y      -0.041000
     17 C25          3.9500    -4.3490     1.5610 ca         1 D7Y       0.338900
     18 C27          4.9170    -2.3150     2.1110 ca         1 D7Y       0.341900
     19 C01          3.1130     4.5490     1.1380 c3         1 D7Y      -0.092100
     20 N04          1.9770     3.2720    -0.6710 n7         1 D7Y      -0.849400
     21 C05          1.8690     1.9130    -0.0280 c3         1 D7Y       0.113500
     22 S07         -0.9310     2.1450     0.3480 ss         1 D7Y      -0.381000
     23 N10         -4.7990     0.8290    -0.2960 ns         1 D7Y      -0.504900
     24 C11         -5.1180    -0.4270     0.1320 c          1 D7Y       0.647100
     25 O13         -6.2040    -0.8530    -0.5800 os         1 D7Y      -0.480100
     26 N20          3.8550     0.5630     0.6360 ns         1 D7Y      -0.503900
     27 N26          4.5970    -3.5810     2.4690 nb         1 D7Y      -0.670000
     28 H1          -6.5440    -2.3710     1.8020 hc         1 D7Y       0.049478
     29 H2          -7.9390    -1.3750     1.3280 hc         1 D7Y       0.049478
     30 H3          -7.9990    -3.1400     1.1670 hc         1 D7Y       0.049478
     31 H4          -6.2740    -4.2370    -0.7980 hc         1 D7Y       0.049478
     32 H5          -5.2920    -3.0580    -1.6880 hc         1 D7Y       0.049478
     33 H6          -4.9980    -3.3530     0.0400 hc         1 D7Y       0.049478
     34 H7           5.7890     0.0010     1.1930 h1         1 D7Y       0.060700
     35 H8           5.4020    -0.2950    -0.5080 h1         1 D7Y       0.060700
     36 H9           3.0840    -4.5430    -0.4120 ha         1 D7Y       0.126000
     37 H10          4.0780     3.4950    -0.4810 h1         1 D7Y       0.024700
     38 H11          4.1090     5.8940    -1.0990 hc         1 D7Y       0.039533
     39 H12          3.2900     4.9340    -2.3430 hc         1 D7Y       0.039533
     40 H13          2.3350     5.9130    -1.2050 hc         1 D7Y       0.039533
     41 H14          0.4020     1.1960    -1.4760 h1         1 D7Y       0.067700
     42 H15          0.5120     0.2150     0.0010 h1         1 D7Y       0.067700
     43 H16         -2.1690     0.0600     0.0840 h1         1 D7Y       0.064700
     44 H17         -2.2900     1.0760    -1.3740 h1         1 D7Y       0.064700
     45 H18         -3.7000     1.6230     1.3040 h1         1 D7Y       0.068200
     46 H19         -3.7980     2.6600    -0.1350 h1         1 D7Y       0.068200
     47 H20         -8.6920    -1.3870    -1.1830 hc         1 D7Y       0.049478
     48 H21         -7.6110    -2.0740    -2.4150 hc         1 D7Y       0.049478
     49 H22         -8.5130    -3.1470    -1.3260 hc         1 D7Y       0.049478
     50 H23          3.6810    -2.1930    -1.0750 ha         1 D7Y       0.129000
     51 H24          3.7020    -5.3630     1.8710 h4         1 D7Y       0.019100
     52 H25          5.4360    -1.7220     2.8620 h4         1 D7Y       0.011100
     53 H26          2.1810     5.0880     1.3470 hc         1 D7Y       0.039533
     54 H27          3.1850     3.7000     1.8270 hc         1 D7Y       0.039533
     55 H28          3.9520     5.2200     1.3550 hc         1 D7Y       0.039533
     56 H29          1.9790     3.1290    -1.6890 hn         1 D7Y       0.435000
     57 H31          1.8840     2.0130     1.0650 h1         1 D7Y       0.076700
     58 H32         -5.3890     1.2100    -1.0240 hn         1 D7Y       0.323500
     59 H33          3.6310     0.9280     1.5550 hn         1 D7Y       0.317500
@<TRIPOS>BOND
     1     1    12 1   
     2     1    28 1   
     3     1    29 1   
     4     1    30 1   
     5     2    12 1   
     6     2    31 1   
     7     2    32 1   
     8     2    33 1   
     9     3     4 1   
    10     3    26 1   
    11     3    34 1   
    12     3    35 1   
    13     4    16 ar  
    14     4    18 ar  
    15     5    16 ar  
    16     5    17 ar  
    17     5    36 1   
    18     6     7 1   
    19     6    19 1   
    20     6    20 1   
    21     6    37 1   
    22     7    38 1   
    23     7    39 1   
    24     7    40 1   
    25     8    21 1   
    26     8    22 1   
    27     8    41 1   
    28     8    42 1   
    29     9    10 1   
    30     9    22 1   
    31     9    43 1   
    32     9    44 1   
    33    10    23 1   
    34    10    45 1   
    35    10    46 1   
    36    11    24 2   
    37    12    13 1   
    38    12    25 1   
    39    13    47 1   
    40    13    48 1   
    41    13    49 1   
    42    14    15 2   
    43    14    21 1   
    44    14    26 1   
    45    16    50 1   
    46    17    27 ar  
    47    17    51 1   
    48    18    27 ar  
    49    18    52 1   
    50    19    53 1   
    51    19    54 1   
    52    19    55 1   
    53    20    21 1   
    54    20    56 1   
    55    21    57 1   
    56    23    24 1   
    57    23    58 1   
    58    24    25 1   
    59    26    59 1   
@<TRIPOS>SUBSTRUCTURE
     1 D7Y         1 TEMP              0 ****  ****    0 ROOT
