@<TRIPOS>MOLECULE
D7Y
   59    59     1     0     0
SMALL
bcc


@<TRIPOS>ATOM
      1 C15         -7.3600    -1.1510     1.3580 c3         1 D7Y      -0.108767
      2 C17         -5.4950    -2.8530     1.3460 c3         1 D7Y      -0.108767
      3 C21          4.2580    -0.7880     1.4190 c3         1 D7Y       0.157300
      4 C22          4.0090    -1.9530     0.4970 ca         1 D7Y      -0.232600
      5 C24          4.5330    -3.2990    -1.4120 ca         1 D7Y      -0.248300
      6 C02          2.9110     4.1080     0.1250 c3         1 D7Y       0.178500
      7 C03          3.5050     5.0930    -0.8690 c3         1 D7Y      -0.092100
      8 C06          0.8150     1.0670    -0.5960 c3         1 D7Y       0.012700
      9 C08         -1.9120     0.7540    -0.8880 c3         1 D7Y      -0.038300
     10 C09         -3.2970     1.3670    -1.0650 c3         1 D7Y       0.132000
     11 O12         -4.5720     0.0570     1.0620 o          1 D7Y      -0.597000
     12 C14         -6.4400    -2.0100     0.4980 c3         1 D7Y       0.200800
     13 C16         -7.2760    -2.9170    -0.3980 c3         1 D7Y      -0.108767
     14 C18          3.1520     1.0100     0.1950 c          1 D7Y       0.624100
     15 O19          3.9830     0.9930    -0.7010 o          1 D7Y      -0.604100
     16 C23          4.8300    -2.2220    -0.5900 ca         1 D7Y      -0.059000
     17 C25          3.4160    -4.0660    -1.1200 ca         1 D7Y       0.404200
     18 C27          2.9170    -2.7920     0.6970 ca         1 D7Y       0.407200
     19 C01          2.0460     4.8340     1.1480 c3         1 D7Y      -0.092100
     20 N04          2.1160     3.1200    -0.6010 n7         1 D7Y      -0.794200
     21 C05          1.8960     1.8860     0.1050 c3         1 D7Y       0.113500
     22 S07         -0.6770     2.0830    -0.7790 ss         1 D7Y      -0.285200
     23 N10         -4.3310     0.3680    -1.1680 ns         1 D7Y      -0.571900
     24 C11         -4.8490    -0.2450    -0.0820 c          1 D7Y       0.763100
     25 O13         -5.7020    -1.1990    -0.4540 os         1 D7Y      -0.456900
     26 N20          3.2440     0.2370     1.2870 ns         1 D7Y      -0.570900
     27 N26          2.6190    -3.8210    -0.0840 nb         1 D7Y      -0.670000
     28 H1          -6.8110    -0.5180     2.0520 hc         1 D7Y       0.049478
     29 H2          -7.9970    -0.5190     0.7370 hc         1 D7Y       0.049478
     30 H3          -8.0100    -1.8020     1.9420 hc         1 D7Y       0.049478
     31 H4          -6.0800    -3.5460     1.9520 hc         1 D7Y       0.049478
     32 H5          -4.8290    -3.4450     0.7160 hc         1 D7Y       0.049478
     33 H6          -4.8930    -2.2480     2.0200 hc         1 D7Y       0.049478
     34 H7           4.2500    -1.1180     2.4570 h1         1 D7Y       0.060700
     35 H8           5.2430    -0.3630     1.2250 h1         1 D7Y       0.060700
     36 H9           5.1520    -3.5390    -2.2670 ha         1 D7Y       0.144000
     37 H10          3.7490     3.6320     0.6590 h1         1 D7Y       0.024700
     38 H11          4.0970     5.8510    -0.3560 hc         1 D7Y       0.039533
     39 H12          4.1580     4.5900    -1.5850 hc         1 D7Y       0.039533
     40 H13          2.7170     5.6020    -1.4280 hc         1 D7Y       0.039533
     41 H14          1.1620     0.7330    -1.5770 h1         1 D7Y       0.067700
     42 H15          0.5670     0.1800    -0.0100 h1         1 D7Y       0.067700
     43 H16         -1.8790     0.1520     0.0220 h1         1 D7Y       0.064700
     44 H17         -1.6840     0.1050    -1.7360 h1         1 D7Y       0.064700
     45 H18         -3.5200     2.0390    -0.2360 h1         1 D7Y       0.068200
     46 H19         -3.3250     1.9650    -1.9760 h1         1 D7Y       0.068200
     47 H20         -7.9470    -2.3380    -1.0350 hc         1 D7Y       0.049478
     48 H21         -6.6440    -3.5380    -1.0350 hc         1 D7Y       0.049478
     49 H22         -7.8860    -3.5790     0.2150 hc         1 D7Y       0.049478
     50 H23          5.6920    -1.5980    -0.7880 ha         1 D7Y       0.147000
     51 H24          3.1540    -4.9120    -1.7450 h4         1 D7Y       0.019100
     52 H25          2.2480    -2.6200     1.5360 h4         1 D7Y       0.011100
     53 H26          1.2680     5.4130     0.6470 hc         1 D7Y       0.039533
     54 H27          1.5550     4.1460     1.8370 hc         1 D7Y       0.039533
     55 H28          2.6510     5.5160     1.7460 hc         1 D7Y       0.039533
     56 H29          2.5670     2.9060    -1.4840 hn         1 D7Y       0.379800
     57 H31          1.5380     2.1140     1.1140 h1         1 D7Y       0.076700
     58 H32         -4.5460    -0.0000    -2.0810 hn         1 D7Y       0.323500
     59 H33          2.5250     0.2890     1.9900 hn         1 D7Y       0.317500
@<TRIPOS>BOND
     1     1    12 1   
     2     1    28 1   
     3     1    29 1   
     4     1    30 1   
     5     2    12 1   
     6     2    31 1   
     7     2    32 1   
     8     2    33 1   
     9     3     4 1   
    10     3    26 1   
    11     3    34 1   
    12     3    35 1   
    13     4    16 ar  
    14     4    18 ar  
    15     5    16 ar  
    16     5    17 ar  
    17     5    36 1   
    18     6     7 1   
    19     6    19 1   
    20     6    20 1   
    21     6    37 1   
    22     7    38 1   
    23     7    39 1   
    24     7    40 1   
    25     8    21 1   
    26     8    22 1   
    27     8    41 1   
    28     8    42 1   
    29     9    10 1   
    30     9    22 1   
    31     9    43 1   
    32     9    44 1   
    33    10    23 1   
    34    10    45 1   
    35    10    46 1   
    36    11    24 2   
    37    12    13 1   
    38    12    25 1   
    39    13    47 1   
    40    13    48 1   
    41    13    49 1   
    42    14    15 2   
    43    14    21 1   
    44    14    26 1   
    45    16    50 1   
    46    17    27 ar  
    47    17    51 1   
    48    18    27 ar  
    49    18    52 1   
    50    19    53 1   
    51    19    54 1   
    52    19    55 1   
    53    20    21 1   
    54    20    56 1   
    55    21    57 1   
    56    23    24 1   
    57    23    58 1   
    58    24    25 1   
    59    26    59 1   
@<TRIPOS>SUBSTRUCTURE
     1 D7Y         1 TEMP              0 ****  ****    0 ROOT
