@<TRIPOS>MOLECULE
D80
   33    35     1     0     0
SMALL
No Charge or Current Charge


@<TRIPOS>ATOM
      1 NAR         -1.2800     3.4090     0.1560 nv         1 D80      -1.060900
      2 CAG         -1.3200     2.0750     0.0890 ca         1 D80       0.692900
      3 NAI         -2.5580     1.6200     0.2970 nb         1 D80      -0.787000
      4 CAA         -2.7590     0.2720     0.2500 ca         1 D80       0.342000
      5 CAC         -4.0470    -0.2520     0.4680 ca         1 D80      -0.109000
      6 CAE         -4.2830    -1.6390     0.4250 ca         1 D80      -0.082000
      7 CAF         -3.2260    -2.5270     0.1600 ca         1 D80      -0.135000
      8 CAD         -1.9320    -2.0310    -0.0620 ca         1 D80      -0.058000
      9 CAB         -1.7030    -0.6430    -0.0170 ca         1 D80      -0.104000
     10 CAJ         -0.4360    -0.0930    -0.2320 ca         1 D80       0.096100
     11 OAM          0.7310    -0.6940    -0.5090 os         1 D80      -0.265700
     12 CAH         -0.2080     1.2510    -0.1900 ca         1 D80      -0.057600
     13 NAK          1.1460     1.5590    -0.4490 nc         1 D80      -0.556100
     14 CAL          1.6450     0.3180    -0.6310 cd         1 D80       0.512600
     15 CAN          3.0860     0.0080    -0.9310 c3         1 D80      -0.084700
     16 CAO          3.8870    -0.4020     0.3270 c3         1 D80      -0.076400
     17 CAP          5.3660    -0.7260     0.0240 c3         1 D80      -0.075400
     18 CAQ          6.1630    -1.1350     1.2790 c3         1 D80      -0.089100
     19 H1          -2.1810     3.8540     0.0430 hn         1 D80       0.495500
     20 H2          -0.4940     3.8500    -0.3070 hn         1 D80       0.495500
     21 H3          -4.8700     0.4260     0.6740 ha         1 D80       0.130000
     22 H4          -5.2860    -2.0240     0.5970 ha         1 D80       0.114000
     23 H5          -3.4110    -3.5980     0.1270 ha         1 D80       0.116000
     24 H6          -1.1140    -2.7190    -0.2680 ha         1 D80       0.120000
     25 H7           3.1330    -0.7990    -1.6700 hc         1 D80       0.071200
     26 H8           3.5590     0.8820    -1.3930 hc         1 D80       0.071200
     27 H9           3.8370     0.4090     1.0640 hc         1 D80       0.051700
     28 H10          3.4120    -1.2790     0.7850 hc         1 D80       0.051700
     29 H11          5.4190    -1.5380    -0.7110 hc         1 D80       0.039200
     30 H12          5.8450     0.1500    -0.4310 hc         1 D80       0.039200
     31 H13          7.2040    -1.3540     1.0150 hc         1 D80       0.034700
     32 H14          6.1590    -0.3280     2.0210 hc         1 D80       0.034700
     33 H15          5.7290    -2.0310     1.7380 hc         1 D80       0.034700
@<TRIPOS>BOND
     1     1     2 1   
     2     1    19 1   
     3     1    20 1   
     4     2     3 ar  
     5     2    12 ar  
     6     3     4 ar  
     7     4     5 ar  
     8     4     9 ar  
     9     5     6 ar  
    10     5    21 1   
    11     6     7 ar  
    12     6    22 1   
    13     7     8 ar  
    14     7    23 1   
    15     8     9 ar  
    16     8    24 1   
    17     9    10 ar  
    18    10    11 1   
    19    10    12 ar  
    20    11    14 1   
    21    12    13 1   
    22    13    14 2   
    23    14    15 1   
    24    15    16 1   
    25    15    25 1   
    26    15    26 1   
    27    16    17 1   
    28    16    27 1   
    29    16    28 1   
    30    17    18 1   
    31    17    29 1   
    32    17    30 1   
    33    18    31 1   
    34    18    32 1   
    35    18    33 1   
@<TRIPOS>SUBSTRUCTURE
     1 D80         1 TEMP              0 ****  ****    0 ROOT
