@<TRIPOS>MOLECULE
D80
   33    35     1     0     0
SMALL
abcg2


@<TRIPOS>ATOM
      1 NAR         -1.2820     3.4720    -0.0560 nv         1 D80      -1.060900
      2 CAG         -1.3970     2.1310    -0.0560 ca         1 D80       0.692900
      3 NAI         -2.5610     1.5670     0.1690 nb         1 D80      -0.787000
      4 CAA         -2.6810     0.2110     0.2100 ca         1 D80       0.342000
      5 CAC         -3.9550    -0.3410     0.4570 ca         1 D80      -0.109000
      6 CAE         -4.1390    -1.7010     0.5070 ca         1 D80      -0.082000
      7 CAF         -3.0630    -2.5830     0.3130 ca         1 D80      -0.135000
      8 CAD         -1.8060    -2.0850     0.0710 ca         1 D80      -0.058000
      9 CAB         -1.6030    -0.6970     0.0170 ca         1 D80      -0.104000
     10 CAJ         -0.3810    -0.0400    -0.2240 ca         1 D80       0.096100
     11 OAM          0.8340    -0.5690    -0.4550 os         1 D80      -0.265700
     12 CAH         -0.2480     1.3140    -0.2660 ca         1 D80      -0.057600
     13 NAK          1.0670     1.6350    -0.5270 nc         1 D80      -0.556100
     14 CAL          1.6610     0.4980    -0.6300 cd         1 D80       0.512600
     15 CAN          3.0920     0.2140    -0.8830 c3         1 D80      -0.084700
     16 CAO          3.7960    -0.4160     0.3230 c3         1 D80      -0.076400
     17 CAP          5.2620    -0.7130     0.0350 c3         1 D80      -0.075400
     18 CAQ          5.9720    -1.3350     1.2290 c3         1 D80      -0.089100
     19 H1          -2.1210     4.0270    -0.0800 hn         1 D80       0.495500
     20 H2          -0.4490     3.8990    -0.4220 hn         1 D80       0.495500
     21 H3          -4.7870     0.3360     0.6080 ha         1 D80       0.130000
     22 H4          -5.1270    -2.0990     0.7000 ha         1 D80       0.114000
     23 H5          -3.2240    -3.6520     0.3550 ha         1 D80       0.116000
     24 H6          -0.9700    -2.7570    -0.0780 ha         1 D80       0.120000
     25 H7           3.1760    -0.4490    -1.7490 hc         1 D80       0.071200
     26 H8           3.5720     1.1560    -1.1500 hc         1 D80       0.071200
     27 H9           3.7180     0.2600     1.1790 hc         1 D80       0.051700
     28 H10          3.2870    -1.3420     0.6060 hc         1 D80       0.051700
     29 H11          5.3320    -1.3860    -0.8250 hc         1 D80       0.039200
     30 H12          5.7700     0.2100    -0.2570 hc         1 D80       0.039200
     31 H13          7.0110    -1.5700     0.9940 hc         1 D80       0.034700
     32 H14          5.9730    -0.6590     2.0860 hc         1 D80       0.034700
     33 H15          5.4850    -2.2610     1.5370 hc         1 D80       0.034700
@<TRIPOS>BOND
     1     1     2 1   
     2     1    19 1   
     3     1    20 1   
     4     2     3 ar  
     5     2    12 ar  
     6     3     4 ar  
     7     4     5 ar  
     8     4     9 ar  
     9     5     6 ar  
    10     5    21 1   
    11     6     7 ar  
    12     6    22 1   
    13     7     8 ar  
    14     7    23 1   
    15     8     9 ar  
    16     8    24 1   
    17     9    10 ar  
    18    10    11 1   
    19    10    12 ar  
    20    11    14 1   
    21    12    13 1   
    22    13    14 2   
    23    14    15 1   
    24    15    16 1   
    25    15    25 1   
    26    15    26 1   
    27    16    17 1   
    28    16    27 1   
    29    16    28 1   
    30    17    18 1   
    31    17    29 1   
    32    17    30 1   
    33    18    31 1   
    34    18    32 1   
    35    18    33 1   
@<TRIPOS>SUBSTRUCTURE
     1 D80         1 TEMP              0 ****  ****    0 ROOT
