@<TRIPOS>MOLECULE
D81
   78    80     1     0     0
SMALL
No Charge or Current Charge


@<TRIPOS>ATOM
      1 C13         -1.9180     0.7090    -0.1040 c3         1 D81       0.129500
      2 C15         -2.2990    -1.6860     0.7010 c5         1 D81       0.174500
      3 C17         -4.0080    -3.4340     0.6910 c5         1 D81      -0.076900
      4 C20         -3.2760     1.0500    -0.8030 c          1 D81       0.558100
      5 C01          2.0550    -2.2800    -0.6220 c3         1 D81      -0.107100
      6 C02          3.0350    -2.4430     0.5710 c3         1 D81       0.200000
      7 C04          2.4230    -1.9550     1.9100 c3         1 D81      -0.107100
      8 C06          4.3590    -0.3600     0.4500 c2         1 D81       0.315100
      9 C09          3.4560     1.8220    -0.5220 c3         1 D81       0.256500
     10 C16         -3.6660    -2.0460     0.0620 c5         1 D81      -0.097900
     11 C19         -1.5940    -3.0570     0.6270 c5         1 D81      -0.097900
     12 C03          3.4750    -3.9200     0.6890 c3         1 D81      -0.107100
     13 C07          5.1660     0.1690     1.3640 c2         1 D81      -0.448000
     14 C10          1.9940     2.1540    -0.9240 c3         1 D81       0.027600
     15 C12         -0.7870     1.5730    -0.7160 c3         1 D81       0.046600
     16 C18         -2.6660    -3.9450     1.3070 c5         1 D81      -0.076900
     17 C23         -5.6310     1.8320    -0.4030 c3         1 D81       0.155300
     18 C24         -6.4640     0.5630    -0.4290 ca         1 D81      -0.174300
     19 C25         -7.0060     0.0320     0.7550 ca         1 D81      -0.067000
     20 C26         -7.7430    -1.1600     0.6700 ca         1 D81      -0.169000
     21 C27         -7.9160    -1.7730    -0.5830 ca         1 D81       0.342900
     22 C29         -6.6850    -0.1200    -1.6420 ca         1 D81       0.366900
     23 C30          4.4630     2.4580    -1.5170 c3         1 D81      -0.059100
     24 C31          5.9150     2.4070    -1.0520 ca         1 D81      -0.080300
     25 C32          6.7750     1.3870    -1.5040 ca         1 D81      -0.101500
     26 C33          8.1120     1.3430    -1.0720 ca         1 D81      -0.106000
     27 C34          8.5980     2.3200    -0.1870 ca         1 D81      -0.107000
     28 C35          7.7460     3.3420     0.2650 ca         1 D81      -0.106000
     29 C36          6.4090     3.3860    -0.1670 ca         1 D81      -0.101500
     30 N08          3.6250     0.3540    -0.4660 nu         1 D81      -0.868200
     31 N14         -1.5540    -0.7490    -0.1720 n7         1 D81      -0.860400
     32 N22         -4.2630     1.5450     0.0250 ns         1 D81      -0.500900
     33 N28         -7.4000    -1.2670    -1.7260 nb         1 D81      -0.665000
     34 O05          4.2650    -1.7140     0.3090 os         1 D81      -0.395100
     35 O21         -3.4680     0.8780    -2.0020 o          1 D81      -0.601100
     36 S11          0.7600     1.5100     0.3050 ss         1 D81      -0.357000
     37 H1          -2.0150     1.0130     0.9470 h1         1 D81       0.068700
     38 H2          -2.3890    -1.3250     1.7370 h1         1 D81       0.054700
     39 H3          -4.7850    -3.3490     1.4590 hc         1 D81       0.041450
     40 H4          -4.3910    -4.1230    -0.0710 hc         1 D81       0.041450
     41 H5           2.5840    -2.3620    -1.5790 hc         1 D81       0.045256
     42 H6           1.2880    -3.0630    -0.5950 hc         1 D81       0.045256
     43 H7           1.5290    -1.3210    -0.5880 hc         1 D81       0.045256
     44 H8           2.0560    -0.9260     1.8300 hc         1 D81       0.045256
     45 H9           1.5760    -2.5880     2.1990 hc         1 D81       0.045256
     46 H10          3.1660    -1.9950     2.7160 hc         1 D81       0.045256
     47 H11          3.6170     2.2650     0.4710 h1         1 D81       0.074700
     48 H12         -4.4370    -1.3030     0.2880 hc         1 D81       0.049950
     49 H13         -3.6010    -2.1230    -1.0300 hc         1 D81       0.049950
     50 H14         -1.3980    -3.3770    -0.4040 hc         1 D81       0.049950
     51 H15         -0.6420    -3.0690     1.1670 hc         1 D81       0.049950
     52 H16          4.2060    -4.0450     1.4960 hc         1 D81       0.045256
     53 H17          2.6160    -4.5660     0.9070 hc         1 D81       0.045256
     54 H18          3.9320    -4.2660    -0.2450 hc         1 D81       0.045256
     55 H19          5.7390    -0.4700     2.0320 ha         1 D81       0.176000
     56 H20          5.2980     1.2400     1.4810 ha         1 D81       0.176000
     57 H22          1.8700     3.2410    -1.0020 h1         1 D81       0.058200
     58 H23          1.7810     1.7160    -1.9080 h1         1 D81       0.058200
     59 H24         -0.5690     1.2210    -1.7320 h1         1 D81       0.065700
     60 H25         -1.1160     2.6180    -0.7810 h1         1 D81       0.065700
     61 H26         -2.6570    -3.8050     2.3950 hc         1 D81       0.041450
     62 H27         -2.5020    -5.0120     1.1200 hc         1 D81       0.041450
     63 H28         -5.6150     2.2990    -1.3970 h1         1 D81       0.063200
     64 H29         -6.0770     2.5530     0.2960 h1         1 D81       0.063200
     65 H30         -6.8540     0.5230     1.7140 ha         1 D81       0.112000
     66 H31         -8.1770    -1.6090     1.5590 ha         1 D81       0.124000
     67 H32         -8.4840    -2.6980    -0.6740 h4         1 D81       0.019100
     68 H33         -6.2750     0.2610    -2.5770 h4         1 D81       0.033100
     69 H34          4.3580     1.9720    -2.4960 hc         1 D81       0.049200
     70 H35          4.1810     3.5060    -1.6760 hc         1 D81       0.049200
     71 H36          6.4040     0.6220    -2.1820 ha         1 D81       0.108000
     72 H37          8.7700     0.5500    -1.4210 ha         1 D81       0.111500
     73 H38          9.6330     2.2860     0.1470 ha         1 D81       0.111000
     74 H39          8.1210     4.1000     0.9490 ha         1 D81       0.111500
     75 H40          5.7560     4.1800     0.1890 ha         1 D81       0.108000
     76 H41         -1.6130    -1.0630    -1.1480 hn         1 D81       0.440000
     77 H43         -4.0350     1.6540     1.0060 hn         1 D81       0.314500
     78 H21          2.9620    -0.1960    -0.9980 hn         1 D81       0.475000
@<TRIPOS>BOND
     1     1     4 1   
     2     1    15 1   
     3     1    31 1   
     4     1    37 1   
     5     2    10 1   
     6     2    11 1   
     7     2    31 1   
     8     2    38 1   
     9     3    10 1   
    10     3    16 1   
    11     3    39 1   
    12     3    40 1   
    13     4    32 1   
    14     4    35 2   
    15     5     6 1   
    16     5    41 1   
    17     5    42 1   
    18     5    43 1   
    19     6     7 1   
    20     6    12 1   
    21     6    34 1   
    22     7    44 1   
    23     7    45 1   
    24     7    46 1   
    25     8    13 2   
    26     8    30 1   
    27     8    34 1   
    28     9    14 1   
    29     9    23 1   
    30     9    30 1   
    31     9    47 1   
    32    10    48 1   
    33    10    49 1   
    34    11    16 1   
    35    11    50 1   
    36    11    51 1   
    37    12    52 1   
    38    12    53 1   
    39    12    54 1   
    40    13    55 1   
    41    13    56 1   
    42    14    36 1   
    43    14    57 1   
    44    14    58 1   
    45    15    36 1   
    46    15    59 1   
    47    15    60 1   
    48    16    61 1   
    49    16    62 1   
    50    17    18 1   
    51    17    32 1   
    52    17    63 1   
    53    17    64 1   
    54    18    19 ar  
    55    18    22 ar  
    56    19    20 ar  
    57    19    65 1   
    58    20    21 ar  
    59    20    66 1   
    60    21    33 ar  
    61    21    67 1   
    62    22    33 ar  
    63    22    68 1   
    64    23    24 1   
    65    23    69 1   
    66    23    70 1   
    67    24    25 ar  
    68    24    29 ar  
    69    25    26 ar  
    70    25    71 1   
    71    26    27 ar  
    72    26    72 1   
    73    27    28 ar  
    74    27    73 1   
    75    28    29 ar  
    76    28    74 1   
    77    29    75 1   
    78    30    78 1   
    79    31    76 1   
    80    32    77 1   
@<TRIPOS>SUBSTRUCTURE
     1 D81         1 TEMP              0 ****  ****    0 ROOT
