@<TRIPOS>MOLECULE
D81
   78    80     1     0     0
SMALL
bcc


@<TRIPOS>ATOM
      1 C13         -1.8660     0.2700    -0.5990 c3         1 D81       0.129500
      2 C15         -2.3830    -1.9270     0.3840 c5         1 D81       0.174500
      3 C17         -4.2140    -3.1370     1.3630 c5         1 D81      -0.076900
      4 C20         -3.2270     0.7600    -1.1010 c          1 D81       0.625100
      5 C01          3.1460    -2.8970    -0.9940 c3         1 D81      -0.107100
      6 C02          3.6700    -2.6640     0.4210 c3         1 D81       0.176800
      7 C04          2.5220    -2.3590     1.3730 c3         1 D81      -0.107100
      8 C06          4.2940    -0.3040     0.4970 c2         1 D81       0.315100
      9 C09          3.2600     1.4970    -0.8920 c3         1 D81       0.256500
     10 C16         -3.9160    -1.9760     0.4140 c5         1 D81      -0.097900
     11 C19         -2.0070    -3.4080     0.3080 c5         1 D81      -0.097900
     12 C03          4.4370    -3.8920     0.8930 c3         1 D81      -0.107100
     13 C07          4.4950     0.3930     1.6230 c2         1 D81      -0.348000
     14 C10          1.9540     1.4520    -1.6830 c3         1 D81      -0.020300
     15 C12         -0.7760     0.9290    -1.4420 c3         1 D81      -0.001300
     16 C18         -3.0440    -4.1340     1.1800 c5         1 D81      -0.076900
     17 C23         -5.2050     2.1090    -0.5980 c3         1 D81       0.155300
     18 C24         -6.2390     1.0710    -0.2530 ca         1 D81      -0.239600
     19 C25         -6.6080     0.8290     1.0650 ca         1 D81      -0.085000
     20 C26         -7.5140    -0.1810     1.3410 ca         1 D81      -0.252300
     21 C27         -8.0220    -0.9180     0.2810 ca         1 D81       0.408200
     22 C29         -6.8200     0.2760    -1.2350 ca         1 D81       0.432200
     23 C30          4.2690     2.4010    -1.6230 c3         1 D81      -0.059100
     24 C31          5.5430     2.5990    -0.8570 ca         1 D81      -0.080300
     25 C32          6.6230     1.7390    -1.0310 ca         1 D81      -0.119500
     26 C33          7.7780     1.8860    -0.2760 ca         1 D81      -0.124000
     27 C34          7.8710     2.9030     0.6650 ca         1 D81      -0.125000
     28 C35          6.8040     3.7750     0.8390 ca         1 D81      -0.124000
     29 C36          5.6510     3.6220     0.0820 ca         1 D81      -0.119500
     30 N08          3.7510     0.1570    -0.6790 nu         1 D81      -0.813000
     31 N14         -1.7280    -1.1630    -0.6540 n7         1 D81      -0.805200
     32 N22         -3.8630     1.6410    -0.3140 ns         1 D81      -0.567900
     33 N28         -7.6900    -0.6950    -0.9840 nb         1 D81      -0.665000
     34 O05          4.6670    -1.6090     0.4440 os         1 D81      -0.371900
     35 O21         -3.6790     0.3690    -2.1680 o          1 D81      -0.601100
     36 S11          0.8260     0.2510    -0.9180 ss         1 D81      -0.261200
     37 H1          -1.7190     0.5790     0.4420 h1         1 D81       0.068700
     38 H2          -2.0360    -1.5270     1.3450 h1         1 D81       0.054700
     39 H3          -4.2400    -2.7720     2.3920 hc         1 D81       0.041450
     40 H4          -5.1860    -3.5910     1.1690 hc         1 D81       0.041450
     41 H5           3.9690    -3.0060    -1.7040 hc         1 D81       0.045256
     42 H6           2.5620    -3.8180    -1.0210 hc         1 D81       0.045256
     43 H7           2.4970    -2.0880    -1.3270 hc         1 D81       0.045256
     44 H8           1.9730    -1.4660     1.0730 hc         1 D81       0.045256
     45 H9           1.8180    -3.1920     1.3670 hc         1 D81       0.045256
     46 H10          2.8770    -2.2230     2.3960 hc         1 D81       0.045256
     47 H11          3.0400     1.9290     0.0860 h1         1 D81       0.074700
     48 H12         -4.3770    -1.0440     0.7410 hc         1 D81       0.049950
     49 H13         -4.2930    -2.1880    -0.5920 hc         1 D81       0.049950
     50 H14         -2.0930    -3.7360    -0.7330 hc         1 D81       0.049950
     51 H15         -0.9760    -3.5890     0.6160 hc         1 D81       0.049950
     52 H16          4.8320    -3.7470     1.9000 hc         1 D81       0.045256
     53 H17          3.7820    -4.7630     0.9130 hc         1 D81       0.045256
     54 H18          5.2710    -4.1190     0.2270 hc         1 D81       0.045256
     55 H19          4.8340    -0.1140     2.5130 ha         1 D81       0.126000
     56 H20          4.3590     1.4620     1.6740 ha         1 D81       0.126000
     57 H22          1.4940     2.4420    -1.6860 h1         1 D81       0.058200
     58 H23          2.1450     1.1740    -2.7230 h1         1 D81       0.058200
     59 H24         -0.9400     0.7350    -2.5040 h1         1 D81       0.065700
     60 H25         -0.7880     2.0110    -1.2920 h1         1 D81       0.065700
     61 H26         -2.6200    -4.4130     2.1450 hc         1 D81       0.041450
     62 H27         -3.3740    -5.0590     0.7070 hc         1 D81       0.041450
     63 H28         -5.2790     2.3880    -1.6490 h1         1 D81       0.063200
     64 H29         -5.3670     3.0150    -0.0130 h1         1 D81       0.063200
     65 H30         -6.1900     1.4240     1.8690 ha         1 D81       0.130000
     66 H31         -7.8230    -0.3970     2.3540 ha         1 D81       0.142000
     67 H32         -8.7300    -1.7200     0.4620 h4         1 D81       0.019100
     68 H33         -6.5610     0.4370    -2.2770 h4         1 D81       0.033100
     69 H34          4.4810     1.9640    -2.6040 hc         1 D81       0.049200
     70 H35          3.7910     3.3670    -1.8100 hc         1 D81       0.049200
     71 H36          6.5580     0.9420    -1.7620 ha         1 D81       0.126000
     72 H37          8.6090     1.2070    -0.4240 ha         1 D81       0.129500
     73 H38          8.7730     3.0210     1.2530 ha         1 D81       0.129000
     74 H39          6.8700     4.5760     1.5650 ha         1 D81       0.129500
     75 H40          4.8220     4.3070     0.2250 ha         1 D81       0.126000
     76 H41         -1.9920    -1.5040    -1.5730 hn         1 D81       0.384800
     77 H43         -3.4680     1.8650     0.5850 hn         1 D81       0.314500
     78 H21          4.0340    -0.3420    -1.5100 hn         1 D81       0.419800
@<TRIPOS>BOND
     1     1     4 1   
     2     1    15 1   
     3     1    31 1   
     4     1    37 1   
     5     2    10 1   
     6     2    11 1   
     7     2    31 1   
     8     2    38 1   
     9     3    10 1   
    10     3    16 1   
    11     3    39 1   
    12     3    40 1   
    13     4    32 1   
    14     4    35 2   
    15     5     6 1   
    16     5    41 1   
    17     5    42 1   
    18     5    43 1   
    19     6     7 1   
    20     6    12 1   
    21     6    34 1   
    22     7    44 1   
    23     7    45 1   
    24     7    46 1   
    25     8    13 2   
    26     8    30 1   
    27     8    34 1   
    28     9    14 1   
    29     9    23 1   
    30     9    30 1   
    31     9    47 1   
    32    10    48 1   
    33    10    49 1   
    34    11    16 1   
    35    11    50 1   
    36    11    51 1   
    37    12    52 1   
    38    12    53 1   
    39    12    54 1   
    40    13    55 1   
    41    13    56 1   
    42    14    36 1   
    43    14    57 1   
    44    14    58 1   
    45    15    36 1   
    46    15    59 1   
    47    15    60 1   
    48    16    61 1   
    49    16    62 1   
    50    17    18 1   
    51    17    32 1   
    52    17    63 1   
    53    17    64 1   
    54    18    19 ar  
    55    18    22 ar  
    56    19    20 ar  
    57    19    65 1   
    58    20    21 ar  
    59    20    66 1   
    60    21    33 ar  
    61    21    67 1   
    62    22    33 ar  
    63    22    68 1   
    64    23    24 1   
    65    23    69 1   
    66    23    70 1   
    67    24    25 ar  
    68    24    29 ar  
    69    25    26 ar  
    70    25    71 1   
    71    26    27 ar  
    72    26    72 1   
    73    27    28 ar  
    74    27    73 1   
    75    28    29 ar  
    76    28    74 1   
    77    29    75 1   
    78    30    78 1   
    79    31    76 1   
    80    32    77 1   
@<TRIPOS>SUBSTRUCTURE
     1 D81         1 TEMP              0 ****  ****    0 ROOT
