@<TRIPOS>MOLECULE
D82
   37    39     1     0     0
SMALL
No Charge or Current Charge


@<TRIPOS>ATOM
      1 N           -5.5080    19.6090    -1.6450 nt         1 D82      -0.602000
      2 C           -4.9670    19.6160    -2.8690 c          1 D82       0.646100
      3 O           -5.3380    20.3470    -3.7690 o          1 D82      -0.534000
      4 C5           0.0450    20.3510    -6.6680 c5         1 D82      -0.098400
      5 N4           0.7420    17.4150    -6.2650 nu         1 D82      -0.921400
      6 N3           0.1890    18.9750    -4.7570 nh         1 D82      -0.796600
      7 C2          -2.1610    17.4720    -4.0490 c6         1 D82       0.187500
      8 O1          -3.9700    18.6960    -2.9380 os         1 D82      -0.478100
      9 C6          -0.8740    19.1260    -6.9670 c5         1 D82       0.174300
     10 C7          -0.4070    18.1470    -5.8050 c5         1 D82       0.491400
     11 C8           0.5080    16.1290    -6.0340 c2         1 D82       0.815100
     12 C9          -1.4560    17.0650    -5.3700 c5         1 D82       0.221500
     13 C1          -3.2680    18.5620    -4.1940 c3         1 D82       0.151600
     14 C3          -0.0590    18.6890    -3.4440 c2         1 D82       0.818100
     15 C4           0.0610    20.4080    -5.1100 c5         1 D82       0.243800
     16 N1          -1.1110    17.9090    -3.1040 nu         1 D82      -0.920400
     17 N2           0.6770    19.1460    -2.5350 n2         1 D82      -0.880100
     18 N5           1.4790    15.3570    -5.9540 n2         1 D82      -0.877100
     19 N6          -0.5710    15.8630    -5.2940 nu         1 D82      -0.942400
     20 O2          -2.2600    19.5070    -6.9340 oh         1 D82      -0.644000
     21 H1          -6.2670    20.2370    -1.4320 hn         1 D82       0.330500
     22 H2          -5.1480    18.9720    -0.9520 hn         1 D82       0.330500
     23 H4          -0.3190    21.2830    -7.1150 hc         1 D82       0.066700
     24 H5           1.6060    17.6880    -5.8300 hn         1 D82       0.510000
     25 H6          -2.6660    16.5770    -3.6550 h1         1 D82       0.067700
     26 H7          -0.6440    18.6940    -7.9510 h1         1 D82       0.067700
     27 H8          -2.2170    16.9300    -6.1510 h1         1 D82       0.072700
     28 H9          -2.8040    19.5150    -4.4730 h1         1 D82       0.070200
     29 H10         -3.9590    18.2630    -4.9930 h1         1 D82       0.070200
     30 H11          0.8930    21.0140    -4.7250 h1         1 D82       0.061200
     31 H12         -0.8770    20.8330    -4.7240 h1         1 D82       0.061200
     32 H13          0.3350    18.7770    -1.6450 hn         1 D82       0.381400
     33 H15          1.1130    14.4800    -5.5710 hn         1 D82       0.383400
     34 H17         -2.4210    20.0740    -7.7210 ho         1 D82       0.444000
     35 H18         -1.3910    17.9890    -2.1330 hn         1 D82       0.473000
     36 H14         -0.3070    15.5690    -4.3610 hn         1 D82       0.486000
     37 H3           1.0560    20.1850    -7.0570 hc         1 D82       0.066700
@<TRIPOS>BOND
     1     1     2 1   
     2     1    21 1   
     3     1    22 1   
     4     2     3 2   
     5     2     8 1   
     6     4     9 1   
     7     4    15 1   
     8     4    23 1   
     9     4    37 1   
    10     5    10 1   
    11     5    11 1   
    12     5    24 1   
    13     6    10 1   
    14     6    14 1   
    15     6    15 1   
    16     7    12 1   
    17     7    13 1   
    18     7    16 1   
    19     7    25 1   
    20     8    13 1   
    21     9    10 1   
    22     9    20 1   
    23     9    26 1   
    24    10    12 1   
    25    11    18 2   
    26    11    19 1   
    27    12    19 1   
    28    12    27 1   
    29    13    28 1   
    30    13    29 1   
    31    14    16 1   
    32    14    17 2   
    33    15    30 1   
    34    15    31 1   
    35    16    35 1   
    36    17    32 1   
    37    18    33 1   
    38    19    36 1   
    39    20    34 1   
@<TRIPOS>SUBSTRUCTURE
     1 D82         1 TEMP              0 ****  ****    0 ROOT
