@<TRIPOS>MOLECULE
D82
   37    39     1     0     0
SMALL
abcg2


@<TRIPOS>ATOM
      1 N           -5.2700    19.3530    -1.4020 nt         1 D82      -0.602000
      2 C           -4.8910    19.3610    -2.6900 c          1 D82       0.646100
      3 O           -5.4360    19.9800    -3.5790 o          1 D82      -0.534000
      4 C5           0.3550    20.3410    -6.7400 c5         1 D82      -0.098400
      5 N4           0.7360    17.4800    -5.9570 nu         1 D82      -0.921400
      6 N3          -0.3170    19.2950    -4.7590 nh         1 D82      -0.796600
      7 C2          -2.1670    17.4720    -4.1520 c6         1 D82       0.187500
      8 O1          -3.8220    18.5750    -2.8780 os         1 D82      -0.478100
      9 C6          -0.6330    19.2240    -7.0400 c5         1 D82       0.174300
     10 C7          -0.4410    18.3130    -5.8090 c5         1 D82       0.491400
     11 C8           0.5040    16.1630    -5.6710 c2         1 D82       0.815100
     12 C9          -1.5550    17.2650    -5.5390 c5         1 D82       0.221500
     13 C1          -3.3040    18.4860    -4.1990 c3         1 D82       0.151600
     14 C3          -0.4290    18.9910    -3.4330 c2         1 D82       0.818100
     15 C4           0.2360    20.5530    -5.2280 c5         1 D82       0.243800
     16 N1          -1.1080    17.8080    -3.2220 nu         1 D82      -0.920400
     17 N2           0.0640    19.7660    -2.5420 n2         1 D82      -0.880100
     18 N5           1.4300    15.2950    -5.5280 n2         1 D82      -0.877100
     19 N6          -0.8570    16.0070    -5.6460 nu         1 D82      -0.942400
     20 O2          -1.9240    19.7800    -7.0840 oh         1 D82      -0.644000
     21 H1          -6.0320    19.9390    -1.1090 hn         1 D82       0.330500
     22 H2          -4.7490    18.8650    -0.6950 hn         1 D82       0.330500
     23 H4           0.1460    21.2430    -7.3130 hc         1 D82       0.066700
     24 H5           1.6550    17.8580    -5.7940 hn         1 D82       0.510000
     25 H6          -2.5900    16.5170    -3.8270 h1         1 D82       0.067700
     26 H7          -0.3910    18.6780    -7.9570 h1         1 D82       0.067700
     27 H8          -2.3490    17.3190    -6.2900 h1         1 D82       0.072700
     28 H9          -2.9570    19.4610    -4.5450 h1         1 D82       0.070200
     29 H10         -4.0720    18.1360    -4.8940 h1         1 D82       0.070200
     30 H11          1.2030    20.7680    -4.7700 h1         1 D82       0.061200
     31 H12         -0.4350    21.3780    -4.9780 h1         1 D82       0.061200
     32 H13         -0.1840    19.4470    -1.6120 hn         1 D82       0.381400
     33 H15          1.0340    14.3820    -5.3400 hn         1 D82       0.383400
     34 H17         -2.5220    19.1590    -7.5100 ho         1 D82       0.444000
     35 H18         -1.3110    17.6120    -2.2540 hn         1 D82       0.473000
     36 H14         -1.2470    15.1860    -5.2100 hn         1 D82       0.486000
     37 H3           1.3630    20.0130    -7.0000 hc         1 D82       0.066700
@<TRIPOS>BOND
     1     1     2 1   
     2     1    21 1   
     3     1    22 1   
     4     2     3 2   
     5     2     8 1   
     6     4     9 1   
     7     4    15 1   
     8     4    23 1   
     9     4    37 1   
    10     5    10 1   
    11     5    11 1   
    12     5    24 1   
    13     6    10 1   
    14     6    14 1   
    15     6    15 1   
    16     7    12 1   
    17     7    13 1   
    18     7    16 1   
    19     7    25 1   
    20     8    13 1   
    21     9    10 1   
    22     9    20 1   
    23     9    26 1   
    24    10    12 1   
    25    11    18 2   
    26    11    19 1   
    27    12    19 1   
    28    12    27 1   
    29    13    28 1   
    30    13    29 1   
    31    14    16 1   
    32    14    17 2   
    33    15    30 1   
    34    15    31 1   
    35    16    35 1   
    36    17    32 1   
    37    18    33 1   
    38    19    36 1   
    39    20    34 1   
@<TRIPOS>SUBSTRUCTURE
     1 D82         1 TEMP              0 ****  ****    0 ROOT
