@<TRIPOS>MOLECULE
D83
   46    49     1     0     0
SMALL
No Charge or Current Charge


@<TRIPOS>ATOM
      1 NAA         -9.0010    -0.7890     0.1700 n2         1 D83      -0.827100
      2 NAB          8.9170     0.2170     0.4900 nv         1 D83      -1.029200
      3 NAC         -8.8390     1.4470    -0.0000 nv         1 D83      -1.077200
      4 NAD          7.9730     2.1490    -0.1400 n2         1 D83      -0.848100
      5 CAE         -6.0940    -0.9930     0.5190 ca         1 D83      -0.078500
      6 CAF         -5.9680     1.2040    -0.4990 ca         1 D83      -0.078500
      7 CAG         -4.6920    -1.0830     0.4970 ca         1 D83      -0.109000
      8 CAH         -4.5650     1.1110    -0.5190 ca         1 D83      -0.109000
      9 CAI         -1.5880     1.0150     0.1530 ca         1 D83      -0.095500
     10 CAJ         -1.7460    -1.3640    -0.2610 ca         1 D83      -0.095500
     11 CAK         -0.1850     0.9270     0.1310 ca         1 D83      -0.099500
     12 CAL         -0.3440    -1.4550    -0.2840 ca         1 D83      -0.099500
     13 CAM          6.4820    -1.2180    -0.2860 ca         1 D83      -0.117000
     14 CAN          5.2480    -1.8940    -0.3950 ca         1 D83      -0.064000
     15 CAO          5.3090     0.8990     0.0940 ca         1 D83      -0.107000
     16 CAP          2.7050    -1.5400    -0.3130 cc         1 D83      -0.222200
     17 NAQ          2.8130     0.7000     0.0760 na         1 D83      -0.214700
     18 CAR         -8.2550     0.2290     0.0380 ce         1 D83       0.660800
     19 CAT         -6.7560     0.1600     0.0390 ca         1 D83      -0.139900
     20 CAU          6.5320     0.1830    -0.0240 ca         1 D83      -0.177900
     21 CAV         -3.8950    -0.0310    -0.0180 cp         1 D83      -0.023000
     22 CAW         -2.4000    -0.1280    -0.0420 cp         1 D83      -0.029000
     23 CAX          0.4570    -0.3100    -0.0880 ca         1 D83      -0.032800
     24 CAY          1.9340    -0.3980    -0.1100 cd         1 D83      -0.000300
     25 CAZ          4.0770    -1.1440    -0.2510 ca         1 D83      -0.087800
     26 CBA          4.1010     0.1970    -0.0180 ca         1 D83      -0.049200
     27 HNAA        -9.9590    -0.5130    -0.0720 hn         1 D83       0.371400
     28 HNAB         9.6630     0.8100     0.8310 hn         1 D83       0.467000
     29 HNAC         8.7120    -0.6030     1.0470 hn         1 D83       0.467000
     30 HNAD        -9.7590     1.5070     0.4200 hn         1 D83       0.461500
     31 HNAE        -8.2250     2.2270     0.2030 hn         1 D83       0.461500
     32 HNAF         7.0770     2.5000    -0.5020 hn         1 D83       0.385400
     33 HAE         -6.6670    -1.8240     0.9250 ha         1 D83       0.128500
     34 HAF         -6.4350     2.0920    -0.9200 ha         1 D83       0.128500
     35 HAG         -4.2180    -1.9760     0.8970 ha         1 D83       0.117000
     36 HAH         -3.9930     1.9290    -0.9480 ha         1 D83       0.117000
     37 HAI         -2.0480     1.9820     0.3380 ha         1 D83       0.118500
     38 HAJ         -2.3320    -2.2650    -0.4300 ha         1 D83       0.118500
     39 HAK          0.3950     1.8310     0.2900 ha         1 D83       0.114500
     40 HAL          0.1090    -2.4260    -0.4590 ha         1 D83       0.114500
     41 HAM          7.4000    -1.7880    -0.4170 ha         1 D83       0.123000
     42 HAN          5.2090    -2.9630    -0.5920 ha         1 D83       0.119000
     43 HAO          5.2940     1.9700     0.2850 ha         1 D83       0.119000
     44 HAP          2.3320    -2.5450    -0.4860 ha         1 D83       0.208000
     45 HNAQ         2.5490     1.6640     0.2450 hn         1 D83       0.351000
     46 CAS          7.8450     0.9010     0.0510 ce         1 D83       0.660800
@<TRIPOS>BOND
     1     1    18 2   
     2     1    27 1   
     3     2    28 1   
     4     2    29 1   
     5     2    46 1   
     6     3    18 1   
     7     3    30 1   
     8     3    31 1   
     9     4    32 1   
    10     4    46 2   
    11     5     7 ar  
    12     5    19 ar  
    13     5    33 1   
    14     6     8 ar  
    15     6    19 ar  
    16     6    34 1   
    17     7    21 ar  
    18     7    35 1   
    19     8    21 ar  
    20     8    36 1   
    21     9    11 ar  
    22     9    22 ar  
    23     9    37 1   
    24    10    12 ar  
    25    10    22 ar  
    26    10    38 1   
    27    11    23 ar  
    28    11    39 1   
    29    12    23 ar  
    30    12    40 1   
    31    13    14 ar  
    32    13    20 ar  
    33    13    41 1   
    34    14    25 ar  
    35    14    42 1   
    36    15    20 ar  
    37    15    26 ar  
    38    15    43 1   
    39    16    24 2   
    40    16    25 1   
    41    16    44 1   
    42    17    24 1   
    43    17    26 1   
    44    17    45 1   
    45    18    19 1   
    46    20    46 1   
    47    21    22 1   
    48    23    24 1   
    49    25    26 ar  
@<TRIPOS>SUBSTRUCTURE
     1 D83         1 TEMP              0 ****  ****    0 ROOT
