@<TRIPOS>MOLECULE
D83
   46    49     1     0     0
SMALL
abcg2


@<TRIPOS>ATOM
      1 NAA         -8.8050    -0.7840    -0.1810 n2         1 D83      -0.827100
      2 NAB          8.7080     0.3880     0.6020 nv         1 D83      -1.029200
      3 NAC         -8.6490     1.5410     0.1670 nv         1 D83      -1.077200
      4 NAD          7.8660     2.0770    -0.7000 n2         1 D83      -0.848100
      5 CAE         -6.0260    -1.0110     0.2840 ca         1 D83      -0.078500
      6 CAF         -5.8460     1.3010    -0.3060 ca         1 D83      -0.078500
      7 CAG         -4.6480    -1.1220     0.2750 ca         1 D83      -0.109000
      8 CAH         -4.4650     1.1890    -0.3200 ca         1 D83      -0.109000
      9 CAI         -1.5590     0.9130     0.3780 ca         1 D83      -0.095500
     10 CAJ         -1.7470    -1.3130    -0.4760 ca         1 D83      -0.095500
     11 CAK         -0.1790     0.8030     0.3670 ca         1 D83      -0.099500
     12 CAL         -0.3690    -1.4230    -0.4970 ca         1 D83      -0.099500
     13 CAM          6.4120    -1.2020    -0.0600 ca         1 D83      -0.117000
     14 CAN          5.2410    -1.9290    -0.0770 ca         1 D83      -0.064000
     15 CAO          5.2030     0.9020    -0.0790 ca         1 D83      -0.107000
     16 CAP          2.6540    -1.6520    -0.0980 cc         1 D83      -0.222200
     17 NAQ          2.7280     0.5800    -0.0660 na         1 D83      -0.214700
     18 CAR         -8.1340     0.2870     0.0070 ce         1 D83       0.660800
     19 CAT         -6.6470     0.2030    -0.0010 ca         1 D83      -0.139900
     20 CAU          6.4040     0.2090    -0.0680 ca         1 D83      -0.177900
     21 CAV         -3.8400    -0.0230    -0.0280 cp         1 D83      -0.023000
     22 CAW         -2.3710    -0.1410    -0.0410 cp         1 D83      -0.029000
     23 CAX          0.4420    -0.3670    -0.0740 ca         1 D83      -0.032800
     24 CAY          1.8930    -0.5070    -0.0880 cd         1 D83      -0.000300
     25 CAZ          4.0170    -1.2490    -0.0880 ca         1 D83      -0.087800
     26 CBA          4.0260     0.1640    -0.0780 ca         1 D83      -0.049200
     27 HNAA        -9.8050    -0.6060    -0.1220 hn         1 D83       0.371400
     28 HNAB         9.5400     0.9460     0.7110 hn         1 D83       0.467000
     29 HNAC         8.4820    -0.1760     1.4040 hn         1 D83       0.467000
     30 HNAD        -9.6430     1.6180     0.3050 hn         1 D83       0.461500
     31 HNAE        -8.1160     2.2180     0.6870 hn         1 D83       0.461500
     32 HNAF         7.0480     2.3180    -1.2470 hn         1 D83       0.385400
     33 HAE         -6.6320    -1.8730     0.5300 ha         1 D83       0.128500
     34 HAF         -6.2890     2.2540    -0.5670 ha         1 D83       0.128500
     35 HAG         -4.1960    -2.0720     0.5300 ha         1 D83       0.117000
     36 HAH         -3.8730     2.0550    -0.5880 ha         1 D83       0.117000
     37 HAI         -2.0050     1.8270     0.7480 ha         1 D83       0.118500
     38 HAJ         -2.3420    -2.1430    -0.8340 ha         1 D83       0.118500
     39 HAK          0.4060     1.6370     0.7340 ha         1 D83       0.114500
     40 HAL          0.0800    -2.3340    -0.8690 ha         1 D83       0.114500
     41 HAM          7.3570    -1.7280    -0.0660 ha         1 D83       0.123000
     42 HAN          5.2720    -3.0110    -0.0870 ha         1 D83       0.119000
     43 HAO          5.1790     1.9850    -0.0620 ha         1 D83       0.119000
     44 HAP          2.2800    -2.6640    -0.0820 ha         1 D83       0.208000
     45 HNAQ         2.4350     1.5410    -0.1330 hn         1 D83       0.351000
     46 CAS          7.6810     0.9730    -0.0800 ce         1 D83       0.660800
@<TRIPOS>BOND
     1     1    18 2   
     2     1    27 1   
     3     2    28 1   
     4     2    29 1   
     5     2    46 1   
     6     3    18 1   
     7     3    30 1   
     8     3    31 1   
     9     4    32 1   
    10     4    46 2   
    11     5     7 ar  
    12     5    19 ar  
    13     5    33 1   
    14     6     8 ar  
    15     6    19 ar  
    16     6    34 1   
    17     7    21 ar  
    18     7    35 1   
    19     8    21 ar  
    20     8    36 1   
    21     9    11 ar  
    22     9    22 ar  
    23     9    37 1   
    24    10    12 ar  
    25    10    22 ar  
    26    10    38 1   
    27    11    23 ar  
    28    11    39 1   
    29    12    23 ar  
    30    12    40 1   
    31    13    14 ar  
    32    13    20 ar  
    33    13    41 1   
    34    14    25 ar  
    35    14    42 1   
    36    15    20 ar  
    37    15    26 ar  
    38    15    43 1   
    39    16    24 2   
    40    16    25 1   
    41    16    44 1   
    42    17    24 1   
    43    17    26 1   
    44    17    45 1   
    45    18    19 1   
    46    20    46 1   
    47    21    22 1   
    48    23    24 1   
    49    25    26 ar  
@<TRIPOS>SUBSTRUCTURE
     1 D83         1 TEMP              0 ****  ****    0 ROOT
