@<TRIPOS>MOLECULE
D84
   67    72     1     0     0
SMALL
abcg2


@<TRIPOS>ATOM
      1 C10        -10.0520    -0.6160    16.2290 ca         1 D84       0.149100
      2 C11        -10.8980    -0.8940    15.1640 ca         1 D84      -0.203000
      3 C12        -10.6400    -2.0260    14.3980 ca         1 D84      -0.057000
      4 C13         -9.5860    -2.8760    14.6720 ca         1 D84      -0.152000
      5 C14         -8.7450    -2.5910    15.7520 ca         1 D84       0.013000
      6 F           -7.8360    -1.9280    22.0640 f          1 D84      -0.113000
      7 C15         -8.9750    -1.4500    16.5090 ca         1 D84      -0.192000
      8 C16         -6.5650    -2.9230    16.9120 c5         1 D84       0.095000
      9 C17         -5.5190    -4.0250    16.7990 c5         1 D84      -0.092400
     10 O1         -10.1900     0.4380    17.0700 os         1 D84      -0.347100
     11 C1          -9.9660    -2.1590    19.8790 ca         1 D84       0.129100
     12 N1          -7.6640    -3.4160    16.0900 n          1 D84      -0.228400
     13 C28        -18.6140    -3.8810    21.7770 c          1 D84       0.550200
     14 N3         -19.0510    -2.7670    21.0860 ns         1 D84      -0.361100
     15 C27        -18.3030    -2.0190    20.2470 cc         1 D84      -0.017400
     16 C29        -17.2350    -4.2020    21.5230 cc         1 D84      -0.319200
     17 C30        -16.4760    -3.4570    20.6780 cd         1 D84      -0.080000
     18 C26        -16.9970    -2.3200    19.9980 cd         1 D84      -0.142200
     19 C23        -16.1730    -1.5100    19.0850 ca         1 D84      -0.006800
     20 C22        -16.7440    -0.9450    17.9250 ca         1 D84      -0.134000
     21 C21        -16.0120    -0.1740    17.0440 ca         1 D84      -0.044000
     22 C24        -14.8270    -1.3050    19.3660 ca         1 D84      -0.106000
     23 C25        -14.0990    -0.5320    18.4730 ca         1 D84      -0.077200
     24 N          -12.7840    -0.1410    18.4620 na         1 D84      -0.165600
     25 C7         -11.7990    -0.5030    19.4530 c3         1 D84       0.135900
     26 C6         -11.1150    -1.8200    19.1670 ca         1 D84      -0.109300
     27 C5         -11.5750    -2.7160    18.2120 ca         1 D84      -0.071000
     28 C4         -10.9060    -3.9060    17.9600 ca         1 D84      -0.107000
     29 C3          -9.7630    -4.2180    18.6740 ca         1 D84      -0.079000
     30 C2          -9.2880    -3.3460    19.6450 ca         1 D84      -0.173000
     31 C           -8.2460    -1.0840    21.0860 c3         1 D84       0.401300
     32 F1          -8.1050     0.1580    21.5720 f          1 D84      -0.113000
     33 C20        -14.6620     0.0350    17.3210 ca         1 D84       0.067400
     34 N2         -13.7020     0.7300    16.6280 nc         1 D84      -0.571100
     35 C8         -12.6100     0.6010    17.3290 cd         1 D84       0.377800
     36 C9         -11.3220     1.2690    16.9620 c3         1 D84       0.147300
     37 C19         -7.6200    -4.7740    15.9330 c          1 D84       0.565000
     38 O2          -8.4560    -5.4620    15.3820 o          1 D84      -0.528000
     39 C18         -6.3590    -5.2770    16.6000 c5         1 D84      -0.169400
     40 H1         -11.7420    -0.2660    14.9150 ha         1 D84       0.137000
     41 H2         -11.2870    -2.2450    13.5580 ha         1 D84       0.118000
     42 H3          -9.4250    -3.7380    14.0450 ha         1 D84       0.142000
     43 H4          -8.3520    -1.2070    17.3590 ha         1 D84       0.119000
     44 H5          -6.2110    -1.9600    16.5450 h1         1 D84       0.050700
     45 H6          -6.8890    -2.7930    17.9500 h1         1 D84       0.050700
     46 H7          -4.8790    -4.0660    17.6780 hc         1 D84       0.061700
     47 H8          -4.8840    -3.8540    15.9290 hc         1 D84       0.061700
     48 H9         -18.8100    -1.1700    19.8100 h4         1 D84       0.203000
     49 H10        -16.8220    -5.0690    22.0180 ha         1 D84       0.210000
     50 H11        -15.4480    -3.7510    20.5040 ha         1 D84       0.188000
     51 H13        -17.7860    -1.1410    17.7040 ha         1 D84       0.112000
     52 H14        -16.4700     0.2440    16.1570 ha         1 D84       0.131000
     53 H15        -14.3700    -1.7130    20.2590 ha         1 D84       0.125000
     54 H16        -11.0690     0.3010    19.5340 h1         1 D84       0.080700
     55 H17        -12.3040    -0.5390    20.4210 h1         1 D84       0.080700
     56 H18        -12.4590    -2.4840    17.6320 ha         1 D84       0.133000
     57 H19        -11.2770    -4.5790    17.2000 ha         1 D84       0.133000
     58 H20         -9.2420    -5.1480    18.4950 ha         1 D84       0.120000
     59 H21         -8.4130    -3.6210    20.2200 ha         1 D84       0.125000
     60 H22         -7.6070    -1.2230    20.2090 h3         1 D84       0.056700
     61 H23        -11.1320     2.1020    17.6430 h1         1 D84       0.082200
     62 H24        -11.4370     1.6920    15.9600 h1         1 D84       0.082200
     63 H25         -6.6410    -5.7330    17.5540 hc         1 D84       0.079200
     64 H26         -5.8830    -6.0500    15.9990 hc         1 D84       0.079200
     65 H27        -20.0120    -2.4900    21.2350 hn         1 D84       0.327500
     66 O           -9.5690    -1.2560    20.8380 os         1 D84      -0.402100
     67 O3         -19.3740    -4.4970    22.5190 o          1 D84      -0.556000
@<TRIPOS>BOND
     1     1     2 ar  
     2     1     7 ar  
     3     1    10 1   
     4     2     3 ar  
     5     2    40 1   
     6     3     4 ar  
     7     3    41 1   
     8     4     5 ar  
     9     4    42 1   
    10     5     7 ar  
    11     5    12 1   
    12     6    31 1   
    13     7    43 1   
    14     8     9 1   
    15     8    12 1   
    16     8    44 1   
    17     8    45 1   
    18     9    39 1   
    19     9    46 1   
    20     9    47 1   
    21    10    36 1   
    22    11    26 ar  
    23    11    30 ar  
    24    11    66 1   
    25    12    37 1   
    26    13    14 1   
    27    13    16 1   
    28    13    67 2   
    29    14    15 1   
    30    14    65 1   
    31    15    18 2   
    32    15    48 1   
    33    16    17 2   
    34    16    49 1   
    35    17    18 1   
    36    17    50 1   
    37    18    19 1   
    38    19    20 ar  
    39    19    22 ar  
    40    20    21 ar  
    41    20    51 1   
    42    21    33 ar  
    43    21    52 1   
    44    22    23 ar  
    45    22    53 1   
    46    23    24 1   
    47    23    33 ar  
    48    24    25 1   
    49    24    35 1   
    50    25    26 1   
    51    25    54 1   
    52    25    55 1   
    53    26    27 ar  
    54    27    28 ar  
    55    27    56 1   
    56    28    29 ar  
    57    28    57 1   
    58    29    30 ar  
    59    29    58 1   
    60    30    59 1   
    61    31    32 1   
    62    31    60 1   
    63    31    66 1   
    64    33    34 1   
    65    34    35 2   
    66    35    36 1   
    67    36    61 1   
    68    36    62 1   
    69    37    38 2   
    70    37    39 1   
    71    39    63 1   
    72    39    64 1   
@<TRIPOS>SUBSTRUCTURE
     1 D84         1 TEMP              0 ****  ****    0 ROOT
