@<TRIPOS>MOLECULE
D84
   67    72     1     0     0
SMALL
No Charge or Current Charge


@<TRIPOS>ATOM
      1 C10        -10.0790    -0.3590    15.9690 ca         1 D84       0.149100
      2 C11        -10.9410    -0.7350    14.9230 ca         1 D84      -0.203000
      3 C12        -10.7640    -1.9760    14.2930 ca         1 D84      -0.057000
      4 C13         -9.7230    -2.8310    14.6930 ca         1 D84      -0.152000
      5 C14         -8.8050    -2.4420    15.6960 ca         1 D84       0.013000
      6 F           -8.8810    -2.5300    22.5450 f          1 D84      -0.113000
      7 C15         -9.0360    -1.2140    16.3530 ca         1 D84      -0.192000
      8 C16         -6.5950    -2.8270    16.9010 c5         1 D84       0.095000
      9 C17         -5.6480    -4.0620    16.8440 c5         1 D84      -0.092400
     10 O1         -10.2210     0.8210    16.6670 os         1 D84      -0.347100
     11 C1          -9.9860    -2.2200    19.7730 ca         1 D84       0.129100
     12 N1          -7.8300    -3.3480    16.2650 n          1 D84      -0.228400
     13 C28        -18.1540    -4.1670    21.8160 c          1 D84       0.550200
     14 N3         -18.7550    -3.3080    20.9420 ns         1 D84      -0.361100
     15 C27        -18.0970    -2.4430    20.0780 cc         1 D84      -0.017400
     16 C29        -16.6950    -4.1100    21.7680 cc         1 D84      -0.319200
     17 C30        -15.9890    -3.2660    20.9290 cd         1 D84      -0.080000
     18 C26        -16.7070    -2.3640    20.0410 cd         1 D84      -0.142200
     19 C23        -16.0040    -1.4510    19.0940 ca         1 D84      -0.006800
     20 C22        -16.7050    -0.8060    18.0350 ca         1 D84      -0.134000
     21 C21        -16.0430     0.0530    17.1310 ca         1 D84      -0.044000
     22 C24        -14.6130    -1.1960    19.2200 ca         1 D84      -0.106000
     23 C25        -13.9920    -0.3320    18.3050 ca         1 D84      -0.077200
     24 N          -12.6790     0.0490    18.2250 na         1 D84      -0.165600
     25 C7         -11.6120    -0.3700    19.1570 c3         1 D84       0.135900
     26 C6         -11.0690    -1.7950    18.9710 ca         1 D84      -0.109300
     27 C5         -11.6210    -2.6920    18.0270 ca         1 D84      -0.071000
     28 C4         -11.1110    -3.9940    17.8980 ca         1 D84      -0.107000
     29 C3         -10.0450    -4.4160    18.7040 ca         1 D84      -0.079000
     30 C2          -9.4750    -3.5310    19.6330 ca         1 D84      -0.173000
     31 C           -8.4150    -1.6750    21.6060 c3         1 D84       0.401300
     32 F1          -7.9890    -0.5760    22.2690 f          1 D84      -0.113000
     33 C20        -14.6710     0.2730    17.2890 ca         1 D84       0.067400
     34 N2         -13.8460     1.0690    16.5120 nc         1 D84      -0.571100
     35 C8         -12.6430     0.9060    17.1040 cd         1 D84       0.377800
     36 C9         -11.4110     1.6410    16.5950 c3         1 D84       0.147300
     37 C19         -7.8600    -4.7580    16.2200 c          1 D84       0.565000
     38 O2          -8.5730    -5.4600    15.5170 o          1 D84      -0.528000
     39 C18         -6.6710    -5.1990    17.0690 c5         1 D84      -0.169400
     40 H1         -11.7530    -0.0920    14.5960 ha         1 D84       0.137000
     41 H2         -11.4400    -2.2810    13.4970 ha         1 D84       0.118000
     42 H3          -9.6260    -3.7810    14.1800 ha         1 D84       0.142000
     43 H4          -8.4150    -0.9140    17.1920 ha         1 D84       0.119000
     44 H5          -6.1810    -1.9660    16.3600 h1         1 D84       0.050700
     45 H6          -6.7970    -2.5260    17.9370 h1         1 D84       0.050700
     46 H7          -4.8580    -4.0300    17.6040 hc         1 D84       0.061700
     47 H8          -5.1670    -4.1480    15.8620 hc         1 D84       0.061700
     48 H9         -18.7920    -1.8550    19.4910 h4         1 D84       0.203000
     49 H10        -16.1890    -4.7920    22.4420 ha         1 D84       0.210000
     50 H11        -14.9050    -3.3090    20.9450 ha         1 D84       0.188000
     51 H13        -17.7640    -0.9730    17.8770 ha         1 D84       0.112000
     52 H14        -16.5870     0.5330    16.3210 ha         1 D84       0.131000
     53 H15        -14.0200    -1.6360    20.0140 ha         1 D84       0.125000
     54 H16        -10.7800     0.3400    19.0810 h1         1 D84       0.080700
     55 H17        -12.0020    -0.2780    20.1790 h1         1 D84       0.080700
     56 H18        -12.4440    -2.3950    17.3830 ha         1 D84       0.133000
     57 H19        -11.5430    -4.6760    17.1690 ha         1 D84       0.133000
     58 H20         -9.6570    -5.4270    18.6040 ha         1 D84       0.120000
     59 H21         -8.6420    -3.8830    20.2340 ha         1 D84       0.125000
     60 H22         -7.5620    -2.1280    21.0920 h3         1 D84       0.056700
     61 H23        -11.2810     2.5400    17.2090 h1         1 D84       0.082200
     62 H24        -11.5880     1.9780    15.5670 h1         1 D84       0.082200
     63 H25         -6.9810    -5.1830    18.1200 hc         1 D84       0.079200
     64 H26         -6.3320    -6.2060    16.8030 hc         1 D84       0.079200
     65 H27        -19.7680    -3.3300    20.9520 hn         1 D84       0.327500
     66 O           -9.4530    -1.3200    20.6760 os         1 D84      -0.402100
     67 O3         -18.7890    -4.9040    22.5520 o          1 D84      -0.556000
@<TRIPOS>BOND
     1     1     2 ar  
     2     1     7 ar  
     3     1    10 1   
     4     2     3 ar  
     5     2    40 1   
     6     3     4 ar  
     7     3    41 1   
     8     4     5 ar  
     9     4    42 1   
    10     5     7 ar  
    11     5    12 1   
    12     6    31 1   
    13     7    43 1   
    14     8     9 1   
    15     8    12 1   
    16     8    44 1   
    17     8    45 1   
    18     9    39 1   
    19     9    46 1   
    20     9    47 1   
    21    10    36 1   
    22    11    26 ar  
    23    11    30 ar  
    24    11    66 1   
    25    12    37 1   
    26    13    14 1   
    27    13    16 1   
    28    13    67 2   
    29    14    15 1   
    30    14    65 1   
    31    15    18 2   
    32    15    48 1   
    33    16    17 2   
    34    16    49 1   
    35    17    18 1   
    36    17    50 1   
    37    18    19 1   
    38    19    20 ar  
    39    19    22 ar  
    40    20    21 ar  
    41    20    51 1   
    42    21    33 ar  
    43    21    52 1   
    44    22    23 ar  
    45    22    53 1   
    46    23    24 1   
    47    23    33 ar  
    48    24    25 1   
    49    24    35 1   
    50    25    26 1   
    51    25    54 1   
    52    25    55 1   
    53    26    27 ar  
    54    27    28 ar  
    55    27    56 1   
    56    28    29 ar  
    57    28    57 1   
    58    29    30 ar  
    59    29    58 1   
    60    30    59 1   
    61    31    32 1   
    62    31    60 1   
    63    31    66 1   
    64    33    34 1   
    65    34    35 2   
    66    35    36 1   
    67    36    61 1   
    68    36    62 1   
    69    37    38 2   
    70    37    39 1   
    71    39    63 1   
    72    39    64 1   
@<TRIPOS>SUBSTRUCTURE
     1 D84         1 TEMP              0 ****  ****    0 ROOT
