@<TRIPOS>MOLECULE
D85
   43    45     1     0     0
SMALL
abcg2


@<TRIPOS>ATOM
      1 C13         17.9590     6.5760    10.7340 c3         1 D85      -0.236400
      2 C14         17.7080     6.4120     9.2200 c          1 D85       0.727000
      3 C12         16.7910     7.1880    11.4900 c3         1 D85       0.250800
      4 C17         17.7280     8.3620    13.4110 cc         1 D85       0.753300
      5 C5          17.6850     5.4470    14.3710 ca         1 D85      -0.130500
      6 C6          17.3320     4.4010    15.2050 ca         1 D85      -0.006000
      7 C4          16.6970     6.2310    13.7790 ca         1 D85       0.342000
      8 C3          15.3550     5.9570    14.0150 ca         1 D85      -0.130500
      9 C2          14.9940     4.9060    14.8430 ca         1 D85      -0.006000
     10 C1          15.9880     4.1380    15.4310 ca         1 D85      -0.276500
     11 C26         20.5590    13.5680    11.3680 ca         1 D85       0.123000
     12 C25         20.6220    12.2890    10.8350 ca         1 D85      -0.116000
     13 C24         20.0300    11.2420    11.5210 ca         1 D85      -0.069000
     14 C28         19.9080    13.8090    12.5670 ca         1 D85      -0.116000
     15 C27         19.3240    12.7510    13.2460 ca         1 D85      -0.069000
     16 C22         19.3850    11.4530    12.7400 ca         1 D85      -0.115500
     17 C20         18.7730    10.3140    13.4340 cd         1 D85       0.407500
     18 C21         18.7270    10.0930    14.7730 cc         1 D85      -0.083000
     19 CL23        19.4130    11.0000    16.0450 cl         1 D85      -0.155000
     20 S18         17.9360     8.5890    15.1330 ss         1 D85      -0.106400
     21 N19         18.2100     9.3170    12.6790 nd         1 D85      -0.711000
     22 N11         17.0470     7.3020    12.9290 nh         1 D85      -0.811100
     23 O16         18.7010     6.0990     8.5360 o          1 D85      -0.731000
     24 O15         16.5420     6.5920     8.8140 o          1 D85      -0.731000
     25 S7          15.5480     2.8110    16.5200 sy         1 D85       1.130600
     26 O8          16.5280     2.7350    17.5920 o          1 D85      -0.556000
     27 O9          14.1420     2.9690    16.8620 o          1 D85      -0.556000
     28 N10         15.8300     1.4970    15.5600 n8         1 D85      -1.003100
     29 H1          18.1860     5.5890    11.1540 hc         1 D85       0.030200
     30 H2          18.8580     7.1780    10.8870 hc         1 D85       0.030200
     31 H3          16.5550     8.1810    11.1110 h1         1 D85       0.068200
     32 H4          15.8970     6.5780    11.3730 h1         1 D85       0.068200
     33 H5          18.7300     5.6490    14.1720 ha         1 D85       0.137000
     34 H6          18.1040     3.7950    15.6600 ha         1 D85       0.133500
     35 H7          14.5910     6.5740    13.5600 ha         1 D85       0.137000
     36 H8          13.9490     4.7050    15.0310 ha         1 D85       0.133500
     37 H9          21.1260    12.1070     9.8960 ha         1 D85       0.126000
     38 H10         20.0790    10.2450    11.1030 ha         1 D85       0.136000
     39 H11         19.8450    14.8110    12.9690 ha         1 D85       0.126000
     40 H12         18.7960    12.9600    14.1660 ha         1 D85       0.136000
     41 H14         15.9710     0.6540    16.1100 hn         1 D85       0.471500
     42 H15         15.1040     1.3520    14.8640 hn         1 D85       0.471500
     43 CL29        21.2940    14.8840    10.5180 cl         1 D85      -0.223000
@<TRIPOS>BOND
     1     1     2 1   
     2     1     3 1   
     3     1    29 1   
     4     1    30 1   
     5     2    23 1   
     6     2    24 1   
     7     3    22 1   
     8     3    31 1   
     9     3    32 1   
    10     4    20 1   
    11     4    21 2   
    12     4    22 1   
    13     5     6 ar  
    14     5     7 ar  
    15     5    33 1   
    16     6    10 ar  
    17     6    34 1   
    18     7     8 ar  
    19     7    22 1   
    20     8     9 ar  
    21     8    35 1   
    22     9    10 ar  
    23     9    36 1   
    24    10    25 1   
    25    11    12 ar  
    26    11    14 ar  
    27    11    43 1   
    28    12    13 ar  
    29    12    37 1   
    30    13    16 ar  
    31    13    38 1   
    32    14    15 ar  
    33    14    39 1   
    34    15    16 ar  
    35    15    40 1   
    36    16    17 1   
    37    17    18 2   
    38    17    21 1   
    39    18    19 1   
    40    18    20 1   
    41    25    26 2   
    42    25    27 2   
    43    25    28 1   
    44    28    41 1   
    45    28    42 1   
@<TRIPOS>SUBSTRUCTURE
     1 D85         1 TEMP              0 ****  ****    0 ROOT
