@<TRIPOS>MOLECULE
D85
   43    45     1     0     0
SMALL
No Charge or Current Charge


@<TRIPOS>ATOM
      1 C13         18.1200     6.4140    10.8850 c3         1 D85      -0.236400
      2 C14         17.8010     6.2970     9.3970 c          1 D85       0.727000
      3 C12         16.9670     7.1750    11.5540 c3         1 D85       0.250800
      4 C17         17.7890     8.4520    13.5060 cc         1 D85       0.753300
      5 C5          17.6710     5.4970    14.5450 ca         1 D85      -0.130500
      6 C6          17.2600     4.4100    15.3340 ca         1 D85      -0.006000
      7 C4          16.7350     6.2400    13.8070 ca         1 D85       0.342000
      8 C3          15.3770     5.8840    13.8610 ca         1 D85      -0.130500
      9 C2          14.9540     4.7990    14.6480 ca         1 D85      -0.006000
     10 C1          15.8960     4.0590    15.3900 ca         1 D85      -0.276500
     11 C26         20.5600    13.7040    11.2130 ca         1 D85       0.123000
     12 C25         20.2850    12.4820    10.5870 ca         1 D85      -0.116000
     13 C24         19.7400    11.4190    11.3270 ca         1 D85      -0.069000
     14 C28         20.2800    13.8660    12.5750 ca         1 D85      -0.116000
     15 C27         19.7360    12.8030    13.3180 ca         1 D85      -0.069000
     16 C22         19.4750    11.5460    12.7160 ca         1 D85      -0.115500
     17 C20         18.8740    10.3960    13.4580 cd         1 D85       0.407500
     18 C21         18.7440    10.2190    14.8330 cc         1 D85      -0.083000
     19 Cl23        19.3930    11.1680    16.1410 cl         1 D85      -0.155000
     20 S18         17.9120     8.7470    15.2190 ss         1 D85      -0.106400
     21 N19         18.3020     9.3710    12.7140 nd         1 D85      -0.711000
     22 N11         17.1560     7.3270    13.0200 nh         1 D85      -0.811100
     23 O16         18.1700     7.1950     8.6570 o          1 D85      -0.731000
     24 O15         17.1420     5.3390     9.0250 o          1 D85      -0.731000
     25 S7          15.3620     2.6700    16.3970 sy         1 D85       1.130600
     26 O8          16.3570     2.3500    17.4180 o          1 D85      -0.556000
     27 O9          13.9360     2.7580    16.6980 o          1 D85      -0.556000
     28 N10         15.4560     1.4120    15.3670 n8         1 D85      -1.003100
     29 H1          18.1490     5.4240    11.3560 hc         1 D85       0.030200
     30 H2          19.0230     7.0140    11.0470 hc         1 D85       0.030200
     31 H3          16.8440     8.1540    11.0670 h1         1 D85       0.068200
     32 H4          16.0320     6.6330    11.3530 h1         1 D85       0.068200
     33 H5          18.7240     5.7590    14.4970 ha         1 D85       0.137000
     34 H6          18.0020     3.8440    15.8950 ha         1 D85       0.133500
     35 H7          14.6450     6.4570    13.3000 ha         1 D85       0.137000
     36 H8          13.8960     4.5390    14.6780 ha         1 D85       0.133500
     37 H9          20.4920    12.3580     9.5270 ha         1 D85       0.126000
     38 H10         19.5420    10.4830    10.8070 ha         1 D85       0.136000
     39 H11         20.4730    14.8210    13.0560 ha         1 D85       0.126000
     40 H12         19.4950    12.9970    14.3560 ha         1 D85       0.136000
     41 H14         16.0190     0.7690    15.9180 hn         1 D85       0.471500
     42 H15         14.5220     1.0220    15.4720 hn         1 D85       0.471500
     43 Cl29        21.2380    15.0370    10.2870 cl         1 D85      -0.223000
@<TRIPOS>BOND
     1     1     2 1   
     2     1     3 1   
     3     1    29 1   
     4     1    30 1   
     5     2    23 1   
     6     2    24 1   
     7     3    22 1   
     8     3    31 1   
     9     3    32 1   
    10     4    20 1   
    11     4    21 2   
    12     4    22 1   
    13     5     6 ar  
    14     5     7 ar  
    15     5    33 1   
    16     6    10 ar  
    17     6    34 1   
    18     7     8 ar  
    19     7    22 1   
    20     8     9 ar  
    21     8    35 1   
    22     9    10 ar  
    23     9    36 1   
    24    10    25 1   
    25    11    12 ar  
    26    11    14 ar  
    27    11    43 1   
    28    12    13 ar  
    29    12    37 1   
    30    13    16 ar  
    31    13    38 1   
    32    14    15 ar  
    33    14    39 1   
    34    15    16 ar  
    35    15    40 1   
    36    16    17 1   
    37    17    18 2   
    38    17    21 1   
    39    18    19 1   
    40    18    20 1   
    41    25    26 2   
    42    25    27 2   
    43    25    28 1   
    44    28    41 1   
    45    28    42 1   
@<TRIPOS>SUBSTRUCTURE
     1 D85         1 TEMP              0 ****  ****    0 ROOT
