@<TRIPOS>MOLECULE
D86
   23    23     1     0     0
SMALL
No Charge or Current Charge


@<TRIPOS>ATOM
      1 C1           2.5860     0.0200    -0.0690 c6         1 D86      -0.081400
      2 C6           1.7700    -1.2900     0.0210 c6         1 D86      -0.101400
      3 C5           0.4400    -1.0650     0.7770 c6         1 D86       0.056100
      4 N4          -0.3510     0.0290     0.1390 nh         1 D86      -0.751000
      5 C3           0.3930     1.3220     0.0660 c6         1 D86       0.056100
      6 C2           1.7260     1.1410    -0.6990 c6         1 D86      -0.101400
      7 C7          -1.6480    -0.0770    -0.1110 cz         1 D86       0.931600
      8 N8          -2.1040    -1.0870    -0.7970 nv         1 D86      -0.609800
      9 N9          -2.4900     0.8210     0.3180 nv         1 D86      -0.609800
     10 H1           2.9160     0.3240     0.9340 hc         1 D86       0.069200
     11 H2           3.4960    -0.1390    -0.6650 hc         1 D86       0.069200
     12 H3           1.5590    -1.6670    -0.9890 hc         1 D86       0.069200
     13 H4           2.3610    -2.0660     0.5270 hc         1 D86       0.069200
     14 H6          -0.1240    -2.0110     0.8030 h1         1 D86       0.075700
     15 H5           0.6630    -0.8030     1.8230 h1         1 D86       0.075700
     16 H7          -0.2010     2.0970    -0.4450 h1         1 D86       0.075700
     17 H8           0.6050     1.6950     1.0800 h1         1 D86       0.075700
     18 H9           2.2850     2.0870    -0.7030 hc         1 D86       0.069200
     19 H10          1.5140     0.8990    -1.7490 hc         1 D86       0.069200
     20 H11         -1.4610    -1.7320    -1.2240 hn         1 D86       0.372500
     21 H12         -3.0660    -1.1470    -1.0870 hn         1 D86       0.372500
     22 H13         -2.1760     1.5520     0.9330 hn         1 D86       0.372500
     23 H14         -3.4850     0.7150     0.2130 hn         1 D86       0.372500
@<TRIPOS>BOND
     1     1     2 1   
     2     1     6 1   
     3     1    10 1   
     4     1    11 1   
     5     2     3 1   
     6     2    12 1   
     7     2    13 1   
     8     3     4 1   
     9     3    14 1   
    10     3    15 1   
    11     4     5 1   
    12     4     7 2   
    13     5     6 1   
    14     5    16 1   
    15     5    17 1   
    16     6    18 1   
    17     6    19 1   
    18     7     8 1   
    19     7     9 1   
    20     8    20 1   
    21     8    21 1   
    22     9    22 1   
    23     9    23 1   
@<TRIPOS>SUBSTRUCTURE
     1 D86         1 TEMP              0 ****  ****    0 ROOT
