@<TRIPOS>MOLECULE
D86
   23    23     1     0     0
SMALL
abcg2


@<TRIPOS>ATOM
      1 C1           2.4910     0.0190    -0.2250 c6         1 D86      -0.081400
      2 C6           1.6730    -1.2680    -0.1610 c6         1 D86      -0.101400
      3 C5           0.5040    -1.0980     0.7970 c6         1 D86       0.056100
      4 N4          -0.3200     0.0450     0.4110 nh         1 D86      -0.751000
      5 C3           0.4190     1.3060     0.4140 c6         1 D86       0.056100
      6 C2           1.6000     1.2140    -0.5460 c6         1 D86      -0.101400
      7 C7          -1.5430    -0.0830    -0.0920 cz         1 D86       0.931600
      8 N8          -2.0200    -1.2750    -0.4400 nv         1 D86      -0.609800
      9 N9          -2.3310     0.9790    -0.2460 nv         1 D86      -0.609800
     10 H1           2.9820     0.1820     0.7390 hc         1 D86       0.069200
     11 H2           3.2830    -0.0700    -0.9700 hc         1 D86       0.069200
     12 H3           1.2990    -1.5290    -1.1550 hc         1 D86       0.069200
     13 H4           2.2900    -2.1010     0.1780 hc         1 D86       0.069200
     14 H6          -0.1000    -1.9990     0.8700 h1         1 D86       0.075700
     15 H5           0.8760    -0.8970     1.8050 h1         1 D86       0.075700
     16 H7          -0.2240     2.1360     0.1390 h1         1 D86       0.075700
     17 H8           0.7650     1.4900     1.4340 h1         1 D86       0.075700
     18 H9           2.1670     2.1460    -0.4890 hc         1 D86       0.069200
     19 H10          1.2180     1.1360    -1.5680 hc         1 D86       0.069200
     20 H11         -1.4140    -2.0410    -0.6800 hn         1 D86       0.372500
     21 H12         -2.9820    -1.3690    -0.7210 hn         1 D86       0.372500
     22 H13         -2.1990     1.8140     0.2990 hn         1 D86       0.372500
     23 H14         -3.2250     0.8780    -0.6970 hn         1 D86       0.372500
@<TRIPOS>BOND
     1     1     2 1   
     2     1     6 1   
     3     1    10 1   
     4     1    11 1   
     5     2     3 1   
     6     2    12 1   
     7     2    13 1   
     8     3     4 1   
     9     3    14 1   
    10     3    15 1   
    11     4     5 1   
    12     4     7 2   
    13     5     6 1   
    14     5    16 1   
    15     5    17 1   
    16     6    18 1   
    17     6    19 1   
    18     7     8 1   
    19     7     9 1   
    20     8    20 1   
    21     8    21 1   
    22     9    22 1   
    23     9    23 1   
@<TRIPOS>SUBSTRUCTURE
     1 D86         1 TEMP              0 ****  ****    0 ROOT
