@<TRIPOS>MOLECULE
D87
   34    36     1     0     0
SMALL
No Charge or Current Charge


@<TRIPOS>ATOM
      1 CAQ         10.8350    17.6590    30.1660 c3         1 D87      -0.088100
      2 CAP         10.9360    18.6760    31.3190 c3         1 D87      -0.079400
      3 CAO         11.4410    18.0470    32.6380 c3         1 D87      -0.072400
      4 CAN         11.5810    19.0590    33.7970 c3         1 D87      -0.014200
      5 CAL         10.2760    19.6920    34.2010 cc         1 D87       0.038900
      6 CAM          9.8000    20.9740    34.0100 cd         1 D87      -0.234200
      7 OAK          9.3310    18.9230    34.8840 os         1 D87      -0.171200
      8 CAH          8.2720    19.7920    35.0890 ca         1 D87      -0.049900
      9 CAJ          8.4960    21.0390    34.5860 ca         1 D87      -0.040800
     10 CAB          7.5260    22.0440    34.7030 ca         1 D87      -0.071000
     11 CAD          7.7300    23.3390    34.1920 ca         1 D87      -0.077000
     12 CAF          6.7250    24.3090    34.3340 ca         1 D87      -0.124000
     13 CAE          5.5220    23.9840    34.9830 ca         1 D87      -0.098000
     14 CAC          5.3210    22.6880    35.4930 ca         1 D87      -0.096000
     15 CAA          6.3100    21.6950    35.3650 ca         1 D87       0.303000
     16 NAI          6.0840    20.4460    35.8700 nb         1 D87      -0.750000
     17 CAG          7.0490    19.5320    35.7310 ca         1 D87       0.640900
     18 NAR          6.6910    18.3530    36.2630 nv         1 D87      -1.053900
     19 H1          10.4730    18.1490    29.2540 hc         1 D87       0.033033
     20 H2          11.8160    17.2170    29.9520 hc         1 D87       0.033033
     21 H3          10.1390    16.8510    30.4210 hc         1 D87       0.033033
     22 H4          11.6110    19.4880    31.0210 hc         1 D87       0.041700
     23 H5           9.9470    19.1250    31.4800 hc         1 D87       0.041700
     24 H6          10.7580    17.2440    32.9430 hc         1 D87       0.046200
     25 H7          12.4180    17.5800    32.4610 hc         1 D87       0.046200
     26 H8          12.0160    18.5470    34.6640 hc         1 D87       0.062200
     27 H9          12.2970    19.8390    33.5100 hc         1 D87       0.062200
     28 H10         10.3310    21.7760    33.5050 ha         1 D87       0.214000
     29 H11          8.6600    23.5950    33.6890 ha         1 D87       0.112000
     30 H12          6.8780    25.3120    33.9420 ha         1 D87       0.113000
     31 H13          4.7440    24.7370    35.0930 ha         1 D87       0.114000
     32 H14          4.3860    22.4490    35.9930 ha         1 D87       0.127000
     33 H15          5.6990    18.2520    36.4360 hn         1 D87       0.479500
     34 H16          7.1820    17.5310    35.9310 hn         1 D87       0.479500
@<TRIPOS>BOND
     1     1     2 1   
     2     1    19 1   
     3     1    20 1   
     4     1    21 1   
     5     2     3 1   
     6     2    22 1   
     7     2    23 1   
     8     3     4 1   
     9     3    24 1   
    10     3    25 1   
    11     4     5 1   
    12     4    26 1   
    13     4    27 1   
    14     5     6 2   
    15     5     7 1   
    16     6     9 1   
    17     6    28 1   
    18     7     8 1   
    19     8     9 ar  
    20     8    17 ar  
    21     9    10 ar  
    22    10    11 ar  
    23    10    15 ar  
    24    11    12 ar  
    25    11    29 1   
    26    12    13 ar  
    27    12    30 1   
    28    13    14 ar  
    29    13    31 1   
    30    14    15 ar  
    31    14    32 1   
    32    15    16 ar  
    33    16    17 ar  
    34    17    18 1   
    35    18    33 1   
    36    18    34 1   
@<TRIPOS>SUBSTRUCTURE
     1 D87         1 TEMP              0 ****  ****    0 ROOT
