@<TRIPOS>MOLECULE
D87
   34    36     1     0     0
SMALL
abcg2


@<TRIPOS>ATOM
      1 CAQ         10.6640    17.4420    30.3610 c3         1 D87      -0.088100
      2 CAP         10.8420    18.5580    31.3870 c3         1 D87      -0.079400
      3 CAO         11.4070    18.0530    32.7120 c3         1 D87      -0.072400
      4 CAN         11.6110    19.1620    33.7590 c3         1 D87      -0.014200
      5 CAL         10.3540    19.8520    34.1380 cc         1 D87       0.038900
      6 CAM          9.9270    21.1390    34.0230 cd         1 D87      -0.234200
      7 OAK          9.3690    19.0660    34.6960 os         1 D87      -0.171200
      8 CAH          8.3020    19.8870    34.9280 ca         1 D87      -0.049900
      9 CAJ          8.5860    21.1760    34.5360 ca         1 D87      -0.040800
     10 CAB          7.5770    22.1700    34.7010 ca         1 D87      -0.071000
     11 CAD          7.7300    23.5240    34.3540 ca         1 D87      -0.077000
     12 CAF          6.6970    24.4160    34.5430 ca         1 D87      -0.124000
     13 CAE          5.4780    23.9720    35.0860 ca         1 D87      -0.098000
     14 CAC          5.3060    22.6500    35.4350 ca         1 D87      -0.096000
     15 CAA          6.3440    21.7100    35.2570 ca         1 D87       0.303000
     16 NAI          6.1120    20.4080    35.6240 nb         1 D87      -0.750000
     17 CAG          7.0580    19.5010    35.4770 ca         1 D87       0.640900
     18 NAR          6.8450    18.2170    35.8960 nv         1 D87      -1.053900
     19 H1          10.2590    17.8260    29.4220 hc         1 D87       0.033033
     20 H2          11.6180    16.9550    30.1410 hc         1 D87       0.033033
     21 H3           9.9790    16.6760    30.7340 hc         1 D87       0.033033
     22 H4          11.5080    19.3290    30.9840 hc         1 D87       0.041700
     23 H5           9.8790    19.0470    31.5650 hc         1 D87       0.041700
     24 H6          10.7430    17.2880    33.1240 hc         1 D87       0.046200
     25 H7          12.3720    17.5690    32.5380 hc         1 D87       0.046200
     26 H8          12.0680    18.7320    34.6550 hc         1 D87       0.062200
     27 H9          12.3000    19.9170    33.3750 hc         1 D87       0.062200
     28 H10         10.5000    21.9540    33.6140 ha         1 D87       0.214000
     29 H11          8.6720    23.8560    33.9350 ha         1 D87       0.112000
     30 H12          6.8210    25.4580    34.2750 ha         1 D87       0.113000
     31 H13          4.6680    24.6750    35.2300 ha         1 D87       0.114000
     32 H14          4.3690    22.3040    35.8540 ha         1 D87       0.127000
     33 H15          5.8830    17.9550    36.0490 hn         1 D87       0.479500
     34 H16          7.4320    17.4950    35.5100 hn         1 D87       0.479500
@<TRIPOS>BOND
     1     1     2 1   
     2     1    19 1   
     3     1    20 1   
     4     1    21 1   
     5     2     3 1   
     6     2    22 1   
     7     2    23 1   
     8     3     4 1   
     9     3    24 1   
    10     3    25 1   
    11     4     5 1   
    12     4    26 1   
    13     4    27 1   
    14     5     6 2   
    15     5     7 1   
    16     6     9 1   
    17     6    28 1   
    18     7     8 1   
    19     8     9 ar  
    20     8    17 ar  
    21     9    10 ar  
    22    10    11 ar  
    23    10    15 ar  
    24    11    12 ar  
    25    11    29 1   
    26    12    13 ar  
    27    12    30 1   
    28    13    14 ar  
    29    13    31 1   
    30    14    15 ar  
    31    14    32 1   
    32    15    16 ar  
    33    16    17 ar  
    34    17    18 1   
    35    18    33 1   
    36    18    34 1   
@<TRIPOS>SUBSTRUCTURE
     1 D87         1 TEMP              0 ****  ****    0 ROOT
