@<TRIPOS>MOLECULE
D88
   65    68     1     0     0
SMALL
bcc


@<TRIPOS>ATOM
      1 CAA         -0.4590     1.9180     2.1400 c3         1 D88       0.117700
      2 CAC          6.1350    -0.1370    -0.6690 c3         1 D88       0.170800
      3 NAD         -4.6920    -4.9680    -0.5430 n1         1 D88      -0.369800
      4 CL1         -5.6210     3.6080    -0.2390 cl         1 D88      -0.057400
      5 CL2         -3.5060     2.3710    -2.2050 cl         1 D88      -0.070400
      6 CAH         -1.2980    -4.2550    -0.9240 ca         1 D88       0.473200
      7 CAI         -4.0700     1.4680    -0.8520 ca         1 D88       0.087400
      8 CAJ         -4.9670    -0.0050     1.3060 ca         1 D88      -0.268000
      9 CAK          1.2000    -1.7900    -0.3820 ca         1 D88      -0.277300
     10 CAL         -0.9510    -0.5270     0.8770 ca         1 D88      -0.183000
     11 CAM          4.8700     0.4190    -0.0250 c3         1 D88      -0.082400
     12 CAN          3.6910    -0.4860    -0.3080 c3         1 D88       0.134400
     13 CAO         10.8560     0.0690     0.5280 c3         1 D88       0.151100
     14 CAP          8.3740     0.4020    -1.3470 c6         1 D88       0.127800
     15 CAQ          7.7920     0.5210     0.9580 c6         1 D88       0.127800
     16 CAR          9.5550     1.3310    -1.0900 c6         1 D88       0.162800
     17 CAS          8.9790     1.4460     1.2060 c6         1 D88       0.162800
     18 NAT         -0.1490    -3.6460    -0.9500 nb         1 D88      -0.677000
     19 OAV          0.5820     1.2180     1.4830 os         1 D88      -0.291900
     20 CAX         -5.4760     1.2680     1.0890 ca         1 D88       0.189100
     21 CAY         -5.0090     2.0220     0.0020 ca         1 D88      -0.049600
     22 CAZ         -3.5790     0.1860    -0.6620 ca         1 D88      -0.201000
     23 CBA         -2.4710    -3.6810    -0.3910 ca         1 D88      -0.225300
     24 CBB         -4.0220    -0.5440     0.4340 ca         1 D88       0.210600
     25 CBC          0.2820     0.0600     0.8860 ca         1 D88       0.126100
     26 CBD          1.3850    -0.5790     0.2290 ca         1 D88       0.166100
     27 CBE         -2.4270    -2.4050     0.1670 ca         1 D88       0.258600
     28 CBF         -0.0660    -2.4160    -0.3870 ca         1 D88       0.447600
     29 CBG         -1.1650    -1.7600     0.2140 ca         1 D88      -0.169300
     30 NBH          7.3040     0.6780    -0.4030 n3         1 D88      -0.713600
     31 NBI         10.0710     1.2590     0.2660 n3         1 D88      -0.712600
     32 C01         -6.9130     1.1370     2.9670 c3         1 D88       0.122700
     33 HAA1        -1.2620     2.1870     1.4480 h1         1 D88       0.045700
     34 HAA2        -0.8770     1.3380     2.9660 h1         1 D88       0.045700
     35 HAA3        -0.0160     2.8280     2.5360 h1         1 D88       0.045700
     36 H011        -7.4070     0.2160     2.6500 h1         1 D88       0.047700
     37 H012        -6.1360     0.8950     3.6970 h1         1 D88       0.047700
     38 H013        -7.6450     1.7890     3.4340 h1         1 D88       0.047700
     39 HAC1         6.2890    -1.1820    -0.3480 h1         1 D88       0.029700
     40 HAC2         5.9880    -0.1690    -1.7520 h1         1 D88       0.029700
     41 HAM1         4.9940     0.5100     1.0560 hc         1 D88       0.065700
     42 HAM2         4.6780     1.4200    -0.4190 hc         1 D88       0.065700
     43 HAH         -1.3510    -5.2460    -1.3620 h4         1 D88       0.030100
     44 HAZ         -2.8730    -0.2280    -1.3680 ha         1 D88       0.167000
     45 HAJ         -5.2920    -0.5930     2.1540 ha         1 D88       0.147000
     46 HAK          2.0130    -2.3140    -0.8640 ha         1 D88       0.161000
     47 HAL         -1.7700    -0.0600     1.4010 ha         1 D88       0.152000
     48 HAN1         3.5290    -0.5900    -1.3870 h1         1 D88       0.038700
     49 HAN2         3.8710    -1.4880     0.0990 h1         1 D88       0.038700
     50 HAO1        11.6760     0.0080    -0.1890 h1         1 D88       0.029367
     51 HAO2        11.2930     0.1350     1.5260 h1         1 D88       0.029367
     52 HAO3        10.3060    -0.8800     0.4780 h1         1 D88       0.029367
     53 HAP1         8.0050     0.5690    -2.3630 h1         1 D88       0.034950
     54 HAP2         8.7020    -0.6510    -1.2960 h1         1 D88       0.034950
     55 HAR1        10.3590     1.1150    -1.7960 h1         1 D88       0.058950
     56 HAR2         9.2290     2.3600    -1.2770 h1         1 D88       0.058950
     57 HAQ1         8.0730    -0.5290     1.1570 h1         1 D88       0.034950
     58 HAQ2         7.0020     0.7710     1.6690 h1         1 D88       0.034950
     59 HAS1         8.6310     2.4820     1.1290 h1         1 D88       0.058950
     60 HAS2         9.3500     1.3060     2.2240 h1         1 D88       0.058950
     61 HAU         -4.2650    -2.4730     1.0390 hn         1 D88       0.448800
     62 CAG         -3.6960    -4.3910    -0.4750 cg         1 D88       0.239800
     63 NAU         -3.5630    -1.8360     0.6890 nu         1 D88      -0.657000
     64 OAW          2.5370     0.0840     0.2990 os         1 D88      -0.294900
     65 O02         -6.3880     1.8560     1.8630 os         1 D88      -0.295900
@<TRIPOS>BOND
     1     1    19 1   
     2     1    33 1   
     3     1    34 1   
     4     1    35 1   
     5     2    11 1   
     6     2    30 1   
     7     2    39 1   
     8     2    40 1   
     9     3    62 3   
    10     4    21 1   
    11     5     7 1   
    12     6    18 ar  
    13     6    23 ar  
    14     6    43 1   
    15     7    21 ar  
    16     7    22 ar  
    17     8    20 ar  
    18     8    24 ar  
    19     8    45 1   
    20     9    26 ar  
    21     9    28 ar  
    22     9    46 1   
    23    10    25 ar  
    24    10    29 ar  
    25    10    47 1   
    26    11    12 1   
    27    11    41 1   
    28    11    42 1   
    29    12    48 1   
    30    12    49 1   
    31    12    64 1   
    32    13    31 1   
    33    13    50 1   
    34    13    51 1   
    35    13    52 1   
    36    14    16 1   
    37    14    30 1   
    38    14    53 1   
    39    14    54 1   
    40    15    17 1   
    41    15    30 1   
    42    15    57 1   
    43    15    58 1   
    44    16    31 1   
    45    16    55 1   
    46    16    56 1   
    47    17    31 1   
    48    17    59 1   
    49    17    60 1   
    50    18    28 ar  
    51    19    25 1   
    52    20    21 ar  
    53    20    65 1   
    54    22    24 ar  
    55    22    44 1   
    56    23    27 ar  
    57    23    62 1   
    58    24    63 1   
    59    25    26 ar  
    60    26    64 1   
    61    27    29 ar  
    62    27    63 1   
    63    28    29 ar  
    64    32    36 1   
    65    32    37 1   
    66    32    38 1   
    67    32    65 1   
    68    61    63 1   
@<TRIPOS>SUBSTRUCTURE
     1 D88         1 TEMP              0 ****  ****    0 ROOT
