@<TRIPOS>MOLECULE
D88
   65    68     1     0     0
SMALL
No Charge or Current Charge


@<TRIPOS>ATOM
      1 CAA         -0.3950     1.9820     2.2590 c3         1 D88       0.140900
      2 CAC          6.3430    -0.3210    -0.6500 c3         1 D88       0.170800
      3 NAD         -4.9050    -4.7660    -0.7580 n1         1 D88      -0.459000
      4 Cl1         -6.0810     3.6970    -0.0500 cl         1 D88      -0.149000
      5 Cl2         -3.6280     2.7700    -1.9060 cl         1 D88      -0.162000
      6 CAH         -1.5000    -4.1360    -1.1190 ca         1 D88       0.407900
      7 CAI         -4.2710     1.7000    -0.6600 ca         1 D88       0.179000
      8 CAJ         -5.2430    -0.0530     1.3030 ca         1 D88      -0.250000
      9 CAK          1.1810    -1.8550    -0.3830 ca         1 D88      -0.194000
     10 CAL         -0.9310    -0.5340     0.9050 ca         1 D88      -0.165000
     11 CAM          5.0460     0.2290    -0.0190 c3         1 D88      -0.082400
     12 CAN          3.8330    -0.6790    -0.2890 c3         1 D88       0.157600
     13 CAO         11.0370     0.1740     0.7240 c3         1 D88       0.151100
     14 CAP          8.6700     0.1010    -1.3690 c6         1 D88       0.127800
     15 CAQ          7.9530     0.8720     0.8510 c6         1 D88       0.127800
     16 CAR          9.8990     1.0680    -1.3010 c6         1 D88       0.162800
     17 CAS          9.1900     1.8310     0.9060 c6         1 D88       0.162800
     18 NAT         -0.2710    -3.5810    -1.0780 nb         1 D88      -0.677000
     19 OAV          0.6310     1.2100     1.6080 os         1 D88      -0.315100
     20 CAX         -5.8380     1.2180     1.1430 ca         1 D88       0.189100
     21 CAY         -5.3460     2.1000     0.1570 ca         1 D88       0.042000
     22 CAZ         -3.6910     0.4360    -0.4940 ca         1 D88      -0.183000
     23 CBA         -2.6220    -3.5470    -0.5360 ca         1 D88      -0.160000
     24 CBB         -4.1700    -0.4340     0.4930 ca         1 D88       0.349000
     25 CBC          0.3650     0.0230     0.9440 ca         1 D88       0.126100
     26 CBD          1.4270    -0.6410     0.2920 ca         1 D88       0.166100
     27 CBE         -2.4760    -2.3160     0.1210 ca         1 D88       0.397000
     28 CBF         -0.1060    -2.4110    -0.4310 ca         1 D88       0.317000
     29 CBG         -1.1810    -1.7390     0.2000 ca         1 D88      -0.104000
     30 NBH          7.5130     0.5870    -0.5540 n3         1 D88      -0.713600
     31 NBI         10.3490     1.3300     0.1030 n3         1 D88      -0.712600
     32 C01         -7.4650     0.8070     2.9620 c3         1 D88       0.145900
     33 HAA1        -1.1670     2.2880     1.5410 h1         1 D88       0.045700
     34 HAA2        -0.8680     1.4040     3.0630 h1         1 D88       0.045700
     35 HAA3         0.0350     2.8880     2.7020 h1         1 D88       0.045700
     36 H011        -7.8620    -0.1260     2.5400 h1         1 D88       0.047700
     37 H012        -6.7140     0.5600     3.7230 h1         1 D88       0.047700
     38 H013        -8.2910     1.3320     3.4580 h1         1 D88       0.047700
     39 HAC1         6.5800    -1.2870    -0.1820 h1         1 D88       0.029700
     40 HAC2         6.1360    -0.5220    -1.7100 h1         1 D88       0.029700
     41 HAM1         5.1720     0.3310     1.0640 hc         1 D88       0.065700
     42 HAM2         4.8440     1.2270    -0.4250 hc         1 D88       0.065700
     43 HAH         -1.5780    -5.0850    -1.6490 h4         1 D88       0.030100
     44 HAZ         -2.8690     0.1380    -1.1360 ha         1 D88       0.149000
     45 HAJ         -5.5990    -0.7460     2.0570 ha         1 D88       0.129000
     46 HAK          1.9830    -2.3890    -0.8800 ha         1 D88       0.143000
     47 HAL         -1.7420    -0.0420     1.4280 ha         1 D88       0.134000
     48 HAN1         3.6750    -0.7680    -1.3710 h1         1 D88       0.038700
     49 HAN2         4.0250    -1.6780     0.1250 h1         1 D88       0.038700
     50 HAO1        11.9080    -0.1240     0.1250 h1         1 D88       0.029367
     51 HAO2        11.3940     0.4330     1.7300 h1         1 D88       0.029367
     52 HAO3        10.3710    -0.6940     0.8120 h1         1 D88       0.029367
     53 HAP1         8.3710    -0.0040    -2.4220 h1         1 D88       0.034950
     54 HAP2         8.9820    -0.8970    -1.0280 h1         1 D88       0.034950
     55 HAR1        10.7210     0.6490    -1.9000 h1         1 D88       0.058950
     56 HAR2         9.6140     2.0160    -1.7810 h1         1 D88       0.058950
     57 HAQ1         8.2050    -0.0660     1.3680 h1         1 D88       0.034950
     58 HAQ2         7.1410     1.3430     1.4220 h1         1 D88       0.034950
     59 HAS1         8.8740     2.8140     0.5260 h1         1 D88       0.058950
     60 HAS2         9.4810     1.9820     1.9560 h1         1 D88       0.058950
     61 HAU         -4.2240    -2.3360     1.1720 hn         1 D88       0.504000
     62 CAG         -3.8830    -4.2120    -0.6600 cg         1 D88       0.329000
     63 NAU         -3.6060    -1.6910     0.6800 nu         1 D88      -0.989000
     64 OAW          2.6910    -0.0780     0.3440 os         1 D88      -0.318100
     65 O02         -6.8970     1.6330     1.9310 os         1 D88      -0.319100
@<TRIPOS>BOND
     1     1    19 1   
     2     1    33 1   
     3     1    34 1   
     4     1    35 1   
     5     2    11 1   
     6     2    30 1   
     7     2    39 1   
     8     2    40 1   
     9     3    62 3   
    10     4    21 1   
    11     5     7 1   
    12     6    18 ar  
    13     6    23 ar  
    14     6    43 1   
    15     7    21 ar  
    16     7    22 ar  
    17     8    20 ar  
    18     8    24 ar  
    19     8    45 1   
    20     9    26 ar  
    21     9    28 ar  
    22     9    46 1   
    23    10    25 ar  
    24    10    29 ar  
    25    10    47 1   
    26    11    12 1   
    27    11    41 1   
    28    11    42 1   
    29    12    48 1   
    30    12    49 1   
    31    12    64 1   
    32    13    31 1   
    33    13    50 1   
    34    13    51 1   
    35    13    52 1   
    36    14    16 1   
    37    14    30 1   
    38    14    53 1   
    39    14    54 1   
    40    15    17 1   
    41    15    30 1   
    42    15    57 1   
    43    15    58 1   
    44    16    31 1   
    45    16    55 1   
    46    16    56 1   
    47    17    31 1   
    48    17    59 1   
    49    17    60 1   
    50    18    28 ar  
    51    19    25 1   
    52    20    21 ar  
    53    20    65 1   
    54    22    24 ar  
    55    22    44 1   
    56    23    27 ar  
    57    23    62 1   
    58    24    63 1   
    59    25    26 ar  
    60    26    64 1   
    61    27    29 ar  
    62    27    63 1   
    63    28    29 ar  
    64    32    36 1   
    65    32    37 1   
    66    32    38 1   
    67    32    65 1   
    68    61    63 1   
@<TRIPOS>SUBSTRUCTURE
     1 D88         1 TEMP              0 ****  ****    0 ROOT
