@<TRIPOS>MOLECULE
D89
   51    54     1     0     0
SMALL
No Charge or Current Charge


@<TRIPOS>ATOM
      1 C10        -12.3820    -2.8410    -2.0000 c3         1 D89      -0.024800
      2 C13         -8.0710    -6.3600    -1.6700 ca         1 D89      -0.003000
      3 C15         -6.1690    -7.0290    -0.3380 ca         1 D89       0.420900
      4 C17         -7.9840    -6.0630     0.7320 ca         1 D89       0.598300
      5 C22         -5.1790    -9.5580    -4.5850 c3         1 D89      -0.292400
      6 C26         -7.4630    -5.5990     5.4100 ca         1 D89      -0.161000
      7 C28         -8.0500    -7.8720     4.7580 ca         1 D89      -0.190000
      8 N1         -13.8560    -5.9070     1.0820 ne         1 D89      -0.622100
      9 C2         -12.9150    -6.7280     1.4790 c2         1 D89       0.473200
     10 C3         -11.4460    -6.6950     1.0780 c6         1 D89      -0.051700
     11 N4         -11.1970    -5.6250     0.1190 na         1 D89       0.072000
     12 C5         -12.2200    -4.8000    -0.3020 cc         1 D89      -0.288600
     13 C6         -13.6210    -4.8710     0.1650 c          1 D89       0.725100
     14 C7         -10.0240    -5.3220    -0.5640 cc         1 D89      -0.077000
     15 C8         -10.3190    -4.2810    -1.3970 cd         1 D89      -0.181000
     16 C9         -11.6830    -3.9390    -1.2390 cd         1 D89      -0.043300
     17 O11        -14.5010    -4.1150    -0.2120 o          1 D89      -0.488100
     18 C12         -8.6910    -5.9230    -0.4870 ca         1 D89      -0.092000
     19 C14         -6.7890    -6.9290    -1.5980 ca         1 D89      -0.178300
     20 N16         -6.7430    -6.5990     0.8040 nb         1 D89      -0.732000
     21 C19         -8.2290    -6.0470     3.1420 ca         1 D89       0.045100
     22 S21         -6.1700    -9.2290    -3.1050 s6         1 D89       1.049000
     23 O23         -7.5630    -9.5880    -3.3990 o          1 D89      -0.511000
     24 O24         -5.4910    -9.8640    -1.9670 o          1 D89      -0.511000
     25 C25         -7.7850    -5.1400     4.1200 ca         1 D89      -0.051000
     26 C27         -7.5940    -6.9620     5.7220 ca         1 D89       0.204000
     27 C29         -8.3700    -7.4170     3.4690 ca         1 D89       0.201000
     28 F30         -8.8370    -8.3020     2.5580 f          1 D89      -0.163000
     29 F31         -7.2860    -7.3990     6.9620 f          1 D89      -0.167000
     30 C32         -5.7200    -8.8990    -5.8790 c3         1 D89      -0.072100
     31 H102       -13.1980    -3.2430    -2.6110 hc         1 D89       0.048700
     32 H103       -12.8040    -2.0960    -1.3160 hc         1 D89       0.048700
     33 H101       -11.6890    -2.3200    -2.6720 hc         1 D89       0.048700
     34 H131        -8.5840    -6.2670    -2.6250 ha         1 D89       0.144000
     35 H151        -5.1730    -7.4610    -0.2420 h4         1 D89       0.033100
     36 H202        -5.0230    -7.1780    -2.8430 h1         1 D89       0.100700
     37 H201        -6.5380    -6.9840    -3.7590 h1         1 D89       0.100700
     38 H222        -5.1590   -10.6490    -4.6950 h1         1 D89       0.102700
     39 H221        -4.1650    -9.2040    -4.3650 h1         1 D89       0.102700
     40 H261        -7.1140    -4.9020     6.1680 ha         1 D89       0.142000
     41 H281        -8.1590    -8.9230     5.0080 ha         1 D89       0.154000
     42 H021       -13.1930    -7.5060     2.1840 h4         1 D89       0.033800
     43 H031       -11.1580    -7.6570     0.6350 h1         1 D89       0.092200
     44 H1         -10.8440    -6.5290     1.9770 h1         1 D89       0.092200
     45 H081        -9.6190    -3.7940    -2.0700 ha         1 D89       0.137000
     46 H251        -7.6870    -4.0840     3.8750 ha         1 D89       0.138000
     47 H321        -5.0930    -9.1760    -6.7360 hc         1 D89       0.051700
     48 H323        -6.7450    -9.2280    -6.0920 hc         1 D89       0.051700
     49 H322        -5.7140    -7.8050    -5.8020 hc         1 D89       0.051700
     50 O18         -8.5490    -5.5680     1.8880 os         1 D89      -0.347400
     51 C20         -6.0890    -7.4330    -2.8660 c3         1 D89      -0.216100
@<TRIPOS>BOND
     1     1    16 1   
     2     1    31 1   
     3     1    32 1   
     4     1    33 1   
     5     2    18 ar  
     6     2    19 ar  
     7     2    34 1   
     8     3    19 ar  
     9     3    20 ar  
    10     3    35 1   
    11     4    18 ar  
    12     4    20 ar  
    13     4    50 1   
    14     5    22 1   
    15     5    30 1   
    16     5    38 1   
    17     5    39 1   
    18     6    25 ar  
    19     6    26 ar  
    20     6    40 1   
    21     7    26 ar  
    22     7    27 ar  
    23     7    41 1   
    24     8     9 2   
    25     8    13 1   
    26     9    10 1   
    27     9    42 1   
    28    10    11 1   
    29    10    43 1   
    30    10    44 1   
    31    11    12 1   
    32    11    14 1   
    33    12    13 1   
    34    12    16 2   
    35    13    17 2   
    36    14    15 2   
    37    14    18 1   
    38    15    16 1   
    39    15    45 1   
    40    19    51 1   
    41    21    25 ar  
    42    21    27 ar  
    43    21    50 1   
    44    22    23 2   
    45    22    24 2   
    46    22    51 1   
    47    25    46 1   
    48    26    29 1   
    49    27    28 1   
    50    30    47 1   
    51    30    48 1   
    52    30    49 1   
    53    36    51 1   
    54    37    51 1   
@<TRIPOS>SUBSTRUCTURE
     1 D89         1 TEMP              0 ****  ****    0 ROOT
