@<TRIPOS>MOLECULE
D89
   51    54     1     0     0
SMALL
abcg2


@<TRIPOS>ATOM
      1 C10        -12.3610    -2.5880    -1.5770 c3         1 D89      -0.024800
      2 C13         -8.0010    -6.3540    -1.5940 ca         1 D89      -0.003000
      3 C15         -6.2880    -7.1840    -0.1780 ca         1 D89       0.420900
      4 C17         -8.1070    -6.2210     0.7660 ca         1 D89       0.598300
      5 C22         -5.5450    -9.6360    -4.4250 c3         1 D89      -0.292400
      6 C26         -7.2260    -5.2680     5.1310 ca         1 D89      -0.161000
      7 C28         -7.8140    -7.6080     4.9010 ca         1 D89      -0.190000
      8 N1         -13.8120    -6.4790     0.4880 ne         1 D89      -0.622100
      9 C2         -12.8480    -7.2690     0.7260 c2         1 D89       0.473200
     10 C3         -11.3970    -7.0360     0.4970 c6         1 D89      -0.051700
     11 N4         -11.1620    -5.7670    -0.1310 na         1 D89       0.072000
     12 C5         -12.1790    -4.8900    -0.4180 cc         1 D89      -0.288600
     13 C6         -13.5430    -5.2140    -0.0830 c          1 D89       0.725100
     14 C7          -9.9950    -5.2680    -0.5910 cc         1 D89      -0.077000
     15 C8         -10.2630    -4.0460    -1.1860 cd         1 D89      -0.181000
     16 C9         -11.6390    -3.7940    -1.0780 cd         1 D89      -0.043300
     17 O11        -14.4720    -4.4590    -0.2840 o          1 D89      -0.488100
     18 C12         -8.7120    -5.9630    -0.4710 ca         1 D89      -0.092000
     19 C14         -6.7610    -6.9730    -1.4620 ca         1 D89      -0.178300
     20 N16         -6.9470    -6.8070     0.9110 nb         1 D89      -0.732000
     21 C19         -8.2390    -6.0570     3.0980 ca         1 D89       0.045100
     22 S21         -6.5800    -9.1060    -3.0630 s6         1 D89       1.049000
     23 O23         -7.9640    -8.9930    -3.5270 o          1 D89      -0.511000
     24 O24         -6.3110    -9.9660    -1.9110 o          1 D89      -0.511000
     25 C25         -7.7050    -5.0280     3.8500 ca         1 D89      -0.051000
     26 C27         -7.2870    -6.5550     5.6280 ca         1 D89       0.204000
     27 C29         -8.2880    -7.3340     3.6360 ca         1 D89       0.201000
     28 F30         -8.8120    -8.3190     2.9030 f          1 D89      -0.163000
     29 F31         -6.8240    -6.8040     6.8590 f          1 D89      -0.167000
     30 C32         -5.7580    -8.8290    -5.6910 c3         1 D89      -0.072100
     31 H102       -13.1460    -2.8510    -2.2860 hc         1 D89       0.048700
     32 H103       -12.8370    -2.0380    -0.7650 hc         1 D89       0.048700
     33 H101       -11.6690    -1.9130    -2.0790 hc         1 D89       0.048700
     34 H131        -8.4200    -6.1680    -2.5740 ha         1 D89       0.144000
     35 H151        -5.3300    -7.6640    -0.0150 h4         1 D89       0.033100
     36 H202        -4.9240    -7.5250    -2.4470 h1         1 D89       0.100700
     37 H201        -6.1410    -6.8060    -3.5190 h1         1 D89       0.100700
     38 H222        -5.8070   -10.6860    -4.5680 h1         1 D89       0.102700
     39 H221        -4.5160    -9.5910    -4.0670 h1         1 D89       0.102700
     40 H261        -6.8120    -4.4650     5.7260 ha         1 D89       0.142000
     41 H281        -7.8570    -8.6110     5.3050 ha         1 D89       0.154000
     42 H021       -13.0810    -8.2360     1.1650 h4         1 D89       0.033800
     43 H031       -11.0020    -7.8570    -0.1080 h1         1 D89       0.092200
     44 H1         -10.9050    -7.1010     1.4710 h1         1 D89       0.092200
     45 H081        -9.5240    -3.4010    -1.6370 ha         1 D89       0.137000
     46 H251        -7.6690    -4.0290     3.4370 ha         1 D89       0.138000
     47 H321        -5.1270    -9.2380    -6.4780 hc         1 D89       0.051700
     48 H323        -6.7900    -8.8820    -6.0310 hc         1 D89       0.051700
     49 H322        -5.4830    -7.7820    -5.5680 hc         1 D89       0.051700
     50 O18         -8.7750    -5.8040     1.8630 os         1 D89      -0.347400
     51 C20         -5.9930    -7.4460    -2.6490 c3         1 D89      -0.216100
@<TRIPOS>BOND
     1     1    16 1   
     2     1    31 1   
     3     1    32 1   
     4     1    33 1   
     5     2    18 ar  
     6     2    19 ar  
     7     2    34 1   
     8     3    19 ar  
     9     3    20 ar  
    10     3    35 1   
    11     4    18 ar  
    12     4    20 ar  
    13     4    50 1   
    14     5    22 1   
    15     5    30 1   
    16     5    38 1   
    17     5    39 1   
    18     6    25 ar  
    19     6    26 ar  
    20     6    40 1   
    21     7    26 ar  
    22     7    27 ar  
    23     7    41 1   
    24     8     9 2   
    25     8    13 1   
    26     9    10 1   
    27     9    42 1   
    28    10    11 1   
    29    10    43 1   
    30    10    44 1   
    31    11    12 1   
    32    11    14 1   
    33    12    13 1   
    34    12    16 2   
    35    13    17 2   
    36    14    15 2   
    37    14    18 1   
    38    15    16 1   
    39    15    45 1   
    40    19    51 1   
    41    21    25 ar  
    42    21    27 ar  
    43    21    50 1   
    44    22    23 2   
    45    22    24 2   
    46    22    51 1   
    47    25    46 1   
    48    26    29 1   
    49    27    28 1   
    50    30    47 1   
    51    30    48 1   
    52    30    49 1   
    53    36    51 1   
    54    37    51 1   
@<TRIPOS>SUBSTRUCTURE
     1 D89         1 TEMP              0 ****  ****    0 ROOT
