@<TRIPOS>MOLECULE
D8A
   35    36     1     0     0
SMALL
bcc


@<TRIPOS>ATOM
      1 C4         -11.4520     1.4600    -0.6990 c6         1 D8A      -0.072400
      2 C5         -12.9360     1.7200    -0.9320 c6         1 D8A      -0.073900
      3 C6          -9.5870     1.2420     0.9750 c5         1 D8A      -0.059700
      4 C7          -8.5840     2.1590     0.2340 c5         1 D8A      -0.078400
      5 C8          -7.3880     2.3560     1.1740 c5         1 D8A       0.152100
      6 C9          -7.5790     1.2540     2.2150 c5         1 D8A       0.106100
      7 C10         -9.0880     1.2220     2.4210 c5         1 D8A       0.125500
      8 O1          -7.4710     3.6420     1.7540 oh         1 D8A      -0.599800
      9 O           -6.8040     1.5080     3.3610 oh         1 D8A      -0.604800
     10 N           -9.5290     0.0410     3.1450 n8         1 D8A      -0.888800
     11 C3         -11.0680     1.5750     0.7770 c6         1 D8A      -0.049700
     12 C2         -11.4980     2.9320     1.3360 c6         1 D8A      -0.072400
     13 C1         -12.9860     3.1880     1.1050 c6         1 D8A      -0.073900
     14 C          -13.3550     3.0740    -0.3700 c6         1 D8A      -0.074400
     15 H1         -11.1800     0.4690    -1.0750 hc         1 D8A       0.041450
     16 H2         -10.8670     2.1810    -1.2820 hc         1 D8A       0.041450
     17 H3         -13.1630     1.6640    -2.0000 hc         1 D8A       0.037450
     18 H4         -13.5220     0.9300    -0.4490 hc         1 D8A       0.037450
     19 H5          -9.4470     0.2210     0.5980 hc         1 D8A       0.057700
     20 H6          -8.2710     1.7080    -0.7070 hc         1 D8A       0.059700
     21 H7          -9.0100     3.1320    -0.0160 hc         1 D8A       0.059700
     22 H8          -6.4320     2.2390     0.6470 h1         1 D8A       0.043700
     23 H9          -7.2910     0.3000     1.7480 h1         1 D8A       0.048700
     24 H10         -9.3800     2.1590     2.9180 h1         1 D8A       0.048700
     25 H11         -6.8000     3.7030     2.4410 ho         1 D8A       0.419000
     26 H12         -6.7510     0.7040     3.8850 ho         1 D8A       0.415000
     27 H13         -9.2820     0.1300     4.1230 hn         1 D8A       0.339800
     28 H14        -10.5410     0.0020     3.1390 hn         1 D8A       0.339800
     29 H16        -11.6460     0.8100     1.3160 hc         1 D8A       0.041700
     30 H17        -11.2810     2.9900     2.4060 hc         1 D8A       0.041450
     31 H18        -10.9230     3.7350     0.8610 hc         1 D8A       0.041450
     32 H19        -13.2580     4.1730     1.4910 hc         1 D8A       0.037450
     33 H20        -13.5710     2.4600     1.6780 hc         1 D8A       0.037450
     34 H21        -12.8530     3.8700    -0.9310 hc         1 D8A       0.038700
     35 H22        -14.4280     3.2270    -0.5060 hc         1 D8A       0.038700
@<TRIPOS>BOND
     1     1     2 1   
     2     1    11 1   
     3     1    15 1   
     4     1    16 1   
     5     2    14 1   
     6     2    17 1   
     7     2    18 1   
     8     3     4 1   
     9     3     7 1   
    10     3    11 1   
    11     3    19 1   
    12     4     5 1   
    13     4    20 1   
    14     4    21 1   
    15     5     6 1   
    16     5     8 1   
    17     5    22 1   
    18     6     7 1   
    19     6     9 1   
    20     6    23 1   
    21     7    10 1   
    22     7    24 1   
    23     8    25 1   
    24     9    26 1   
    25    10    27 1   
    26    10    28 1   
    27    11    12 1   
    28    11    29 1   
    29    12    13 1   
    30    12    30 1   
    31    12    31 1   
    32    13    14 1   
    33    13    32 1   
    34    13    33 1   
    35    14    34 1   
    36    14    35 1   
@<TRIPOS>SUBSTRUCTURE
     1 D8A         1 TEMP              0 ****  ****    0 ROOT
