@<TRIPOS>MOLECULE
D8A
   35    36     1     0     0
SMALL
No Charge or Current Charge


@<TRIPOS>ATOM
      1 C4         -11.4290     1.4930    -0.7700 c6         1 D8A      -0.072400
      2 C5         -12.9540     1.6570    -0.9910 c6         1 D8A      -0.073900
      3 C6          -9.5250     1.3320     0.9640 c5         1 D8A      -0.059700
      4 C7          -8.5490     2.3510     0.2760 c5         1 D8A      -0.078400
      5 C8          -7.2060     2.2540     1.0820 c5         1 D8A       0.175300
      6 C9          -7.4890     1.1530     2.1570 c5         1 D8A       0.129300
      7 C10         -9.0110     1.3640     2.4330 c5         1 D8A       0.125500
      8 O1          -6.8920     3.4940     1.7160 oh         1 D8A      -0.662000
      9 O           -6.6730     1.3060     3.3300 oh         1 D8A      -0.667000
     10 N           -9.6120     0.3320     3.3050 n8         1 D8A      -0.999200
     11 C3         -11.0580     1.5690     0.7410 c6         1 D8A      -0.049700
     12 C2         -11.5870     2.9030     1.3550 c6         1 D8A      -0.072400
     13 C1         -13.1120     3.0630     1.1320 c6         1 D8A      -0.073900
     14 C          -13.4720     2.9760    -0.3700 c6         1 D8A      -0.074400
     15 H1         -11.1020     0.5330    -1.1900 hc         1 D8A       0.041450
     16 H2         -10.8980     2.2750    -1.3300 hc         1 D8A       0.041450
     17 H3         -13.1780     1.6380    -2.0670 hc         1 D8A       0.037450
     18 H4         -13.4860     0.8040    -0.5470 hc         1 D8A       0.037450
     19 H5          -9.3500     0.3320     0.5450 hc         1 D8A       0.057700
     20 H6          -8.3960     2.1010    -0.7800 hc         1 D8A       0.059700
     21 H7          -8.9390     3.3740     0.2940 hc         1 D8A       0.059700
     22 H8          -6.3770     1.9450     0.4290 h1         1 D8A       0.043700
     23 H9          -7.3200     0.1580     1.7190 h1         1 D8A       0.048700
     24 H10         -9.2030     2.3450     2.8920 h1         1 D8A       0.048700
     25 H11         -6.5620     3.2140     2.6030 ho         1 D8A       0.458000
     26 H12         -6.9870     0.6220     3.9640 ho         1 D8A       0.454000
     27 H13         -9.4880     0.6040     4.2880 hn         1 D8A       0.395000
     28 H14        -10.6310     0.3500     3.1850 hn         1 D8A       0.395000
     29 H16        -11.5870     0.7470     1.2450 hc         1 D8A       0.041700
     30 H17        -11.3820     2.9370     2.4330 hc         1 D8A       0.041450
     31 H18        -11.0710     3.7650     0.9120 hc         1 D8A       0.041450
     32 H19        -13.4480     4.0260     1.5400 hc         1 D8A       0.037450
     33 H20        -13.6510     2.2840     1.6880 hc         1 D8A       0.037450
     34 H21        -13.0390     3.8320    -0.9060 hc         1 D8A       0.038700
     35 H22        -14.5610     3.0460    -0.4980 hc         1 D8A       0.038700
@<TRIPOS>BOND
     1     1     2 1   
     2     1    11 1   
     3     1    15 1   
     4     1    16 1   
     5     2    14 1   
     6     2    17 1   
     7     2    18 1   
     8     3     4 1   
     9     3     7 1   
    10     3    11 1   
    11     3    19 1   
    12     4     5 1   
    13     4    20 1   
    14     4    21 1   
    15     5     6 1   
    16     5     8 1   
    17     5    22 1   
    18     6     7 1   
    19     6     9 1   
    20     6    23 1   
    21     7    10 1   
    22     7    24 1   
    23     8    25 1   
    24     9    26 1   
    25    10    27 1   
    26    10    28 1   
    27    11    12 1   
    28    11    29 1   
    29    12    13 1   
    30    12    30 1   
    31    12    31 1   
    32    13    14 1   
    33    13    32 1   
    34    13    33 1   
    35    14    34 1   
    36    14    35 1   
@<TRIPOS>SUBSTRUCTURE
     1 D8A         1 TEMP              0 ****  ****    0 ROOT
