@<TRIPOS>MOLECULE
D8B
   30    31     1     0     0
SMALL
No Charge or Current Charge


@<TRIPOS>ATOM
      1 C1          -2.9190    -1.6650    -0.0020 ca         1 D8B      -0.146000
      2 N1          -3.3320     0.7250     0.0030 nb         1 D8B      -0.663000
      3 C11          3.3420     2.1230     0.0020 ca         1 D8B      -0.077000
      4 C12          4.2700     1.0670     0.0120 ca         1 D8B      -0.190000
      5 C13          3.8170    -0.2700     0.0200 ca         1 D8B       0.138100
      6 C14          2.4380    -0.5360     0.0180 ca         1 D8B      -0.125000
      7 C15          6.1110    -1.1830     0.0330 c3         1 D8B       0.148900
      8 C2          -2.4840    -0.3280     0.0010 ca         1 D8B       0.480000
      9 C3          -4.6580     0.4660    -0.0000 ca         1 D8B       0.360300
     10 C4          -5.1790    -0.8410    -0.0010 ca         1 D8B      -0.160000
     11 C5          -4.2970    -1.9340    -0.0030 ca         1 D8B      -0.072000
     12 C6          -5.5730     1.6750     0.0070 c3         1 D8B      -0.144400
     13 C7          -1.0850    -0.0120     0.0030 cg         1 D8B      -0.208000
     14 C8           0.1100     0.2410     0.0050 ch         1 D8B      -0.083000
     15 C9           1.5080     0.5190     0.0080 ca         1 D8B       0.059000
     16 C10          1.9640     1.8500     0.0000 ca         1 D8B      -0.121000
     17 H1          -2.1960    -2.4760    -0.0030 ha         1 D8B       0.131000
     18 H2           3.6900     3.1540    -0.0030 ha         1 D8B       0.114000
     19 H3           5.3300     1.3060     0.0140 ha         1 D8B       0.117000
     20 H4           2.0930    -1.5670     0.0230 ha         1 D8B       0.132000
     21 H5           6.4440    -0.6420    -0.8610 h1         1 D8B       0.040700
     22 H6           6.4380    -0.6300     0.9230 h1         1 D8B       0.040700
     23 H7           6.6050    -2.1630     0.0410 h1         1 D8B       0.040700
     24 H8          -6.2540    -1.0040     0.0000 ha         1 D8B       0.123000
     25 H9          -4.6690    -2.9560    -0.0040 ha         1 D8B       0.121000
     26 H10         -5.6810     2.0740     1.0220 hc         1 D8B       0.052033
     27 H11         -5.1820     2.4760    -0.6320 hc         1 D8B       0.052033
     28 H12         -6.5740     1.4200    -0.3610 hc         1 D8B       0.052033
     29 H13          1.2510     2.6720    -0.0080 ha         1 D8B       0.127000
     30 O1           4.6810    -1.3470     0.0300 os         1 D8B      -0.340100
@<TRIPOS>BOND
     1     1     8 ar  
     2     1    11 ar  
     3     1    17 1   
     4     2     8 ar  
     5     2     9 ar  
     6     3     4 ar  
     7     3    16 ar  
     8     3    18 1   
     9     4     5 ar  
    10     4    19 1   
    11     5     6 ar  
    12     5    30 1   
    13     6    15 ar  
    14     6    20 1   
    15     7    21 1   
    16     7    22 1   
    17     7    23 1   
    18     7    30 1   
    19     8    13 1   
    20     9    10 ar  
    21     9    12 1   
    22    10    11 ar  
    23    10    24 1   
    24    11    25 1   
    25    12    26 1   
    26    12    27 1   
    27    12    28 1   
    28    13    14 3   
    29    14    15 1   
    30    15    16 ar  
    31    16    29 1   
@<TRIPOS>SUBSTRUCTURE
     1 D8B         1 TEMP              0 ****  ****    0 ROOT
