@<TRIPOS>MOLECULE
D8B
   30    31     1     0     0
SMALL
bcc


@<TRIPOS>ATOM
      1 C1          -2.8850    -1.6550    -0.0270 ca         1 D8B      -0.229300
      2 N1          -3.3040     0.7060     0.0120 nb         1 D8B      -0.663000
      3 C11          3.3100     2.0850     0.0110 ca         1 D8B      -0.095000
      4 C12          4.2410     1.0520     0.0250 ca         1 D8B      -0.208000
      5 C13          3.8020    -0.2700     0.0320 ca         1 D8B       0.138100
      6 C14          2.4340    -0.5410     0.0240 ca         1 D8B      -0.143000
      7 C15          6.0070    -1.1360     0.0400 c3         1 D8B       0.125700
      8 C2          -2.4610    -0.3270    -0.0020 ca         1 D8B       0.545300
      9 C3          -4.6110     0.4670     0.0030 ca         1 D8B       0.425600
     10 C4          -5.1230    -0.8300    -0.0230 ca         1 D8B      -0.243300
     11 C5          -4.2460    -1.9010    -0.0380 ca         1 D8B      -0.090000
     12 C6          -5.5150     1.6610     0.0240 c3         1 D8B      -0.144400
     13 C7          -1.0650    -0.0250     0.0080 cg         1 D8B      -0.208000
     14 C8           0.1180     0.2120     0.0020 ch         1 D8B      -0.083000
     15 C9           1.5110     0.5000     0.0090 ca         1 D8B       0.059000
     16 C10          1.9540     1.8280     0.0020 ca         1 D8B      -0.139000
     17 H1          -2.1630    -2.4590    -0.0370 ha         1 D8B       0.149000
     18 H2           3.6620     3.1080     0.0040 ha         1 D8B       0.132000
     19 H3           5.2940     1.2970     0.0320 ha         1 D8B       0.135000
     20 H4           2.0950    -1.5690     0.0300 ha         1 D8B       0.150000
     21 H5           6.3400    -0.5990    -0.8530 h1         1 D8B       0.040700
     22 H6           6.3470    -0.5910     0.9250 h1         1 D8B       0.040700
     23 H7           6.4650    -2.1220     0.0420 h1         1 D8B       0.040700
     24 H8          -6.1920    -0.9910    -0.0310 ha         1 D8B       0.141000
     25 H9          -4.6170    -2.9170    -0.0570 ha         1 D8B       0.139000
     26 H10         -5.3660     2.2410     0.9350 hc         1 D8B       0.052033
     27 H11         -5.3050     2.3220    -0.8170 hc         1 D8B       0.052033
     28 H12         -6.5630     1.3740    -0.0240 hc         1 D8B       0.052033
     29 H13          1.2360     2.6360    -0.0100 ha         1 D8B       0.145000
     30 O1           4.6120    -1.3410     0.0460 os         1 D8B      -0.316900
@<TRIPOS>BOND
     1     1     8 ar  
     2     1    11 ar  
     3     1    17 1   
     4     2     8 ar  
     5     2     9 ar  
     6     3     4 ar  
     7     3    16 ar  
     8     3    18 1   
     9     4     5 ar  
    10     4    19 1   
    11     5     6 ar  
    12     5    30 1   
    13     6    15 ar  
    14     6    20 1   
    15     7    21 1   
    16     7    22 1   
    17     7    23 1   
    18     7    30 1   
    19     8    13 1   
    20     9    10 ar  
    21     9    12 1   
    22    10    11 ar  
    23    10    24 1   
    24    11    25 1   
    25    12    26 1   
    26    12    27 1   
    27    12    28 1   
    28    13    14 3   
    29    14    15 1   
    30    15    16 ar  
    31    16    29 1   
@<TRIPOS>SUBSTRUCTURE
     1 D8B         1 TEMP              0 ****  ****    0 ROOT
