@<TRIPOS>MOLECULE
D8C
   66    70     1     0     0
SMALL
abcg2


@<TRIPOS>ATOM
      1 C16          5.1600     0.2220    -0.0330 ca         1 D8C       0.329000
      2 C18          4.5190    -2.0800    -0.9090 c3         1 D8C      -0.036800
      3 C20         -4.4950     0.4750     1.4310 ca         1 D8C       0.072000
      4 C21         -5.3000    -0.1040     0.4480 ca         1 D8C       0.265000
      5 C22          7.6870    -2.0180     1.4920 c6         1 D8C       0.160300
      6 C15          4.8570     1.5860     0.1070 ca         1 D8C      -0.184000
      7 C13          2.6460     1.2420    -0.7870 ca         1 D8C      -0.172800
      8 C12          2.9690    -0.1080    -0.9270 ca         1 D8C       0.186100
      9 C11          1.3260     1.6790    -1.1720 cc         1 D8C       0.061600
     10 C10          0.8020    -0.6190    -1.7850 c          1 D8C       0.681300
     11 C8          -0.9970     1.1030    -1.9680 c6         1 D8C       0.156200
     12 C9           0.4280     0.7680    -1.6160 cd         1 D8C      -0.277400
     13 C3          -3.2640     1.6900    -0.2270 ca         1 D8C      -0.139600
     14 C4          -4.0590     1.1220    -1.2170 ca         1 D8C      -0.065000
     15 C2          -3.5060     1.3850     1.1060 ca         1 D8C      -0.046000
     16 C1          -5.0770     0.2480    -0.8800 ca         1 D8C      -0.088000
     17 C6          -0.3170     3.4140    -1.8580 c6         1 D8C       0.090000
     18 C5          -2.2190     2.7160    -0.5340 c          1 D8C       0.616700
     19 O5          -5.8800    -2.7300    -1.0040 o          1 D8C      -0.522000
     20 S1          -6.1690    -2.6260     0.4150 s6         1 D8C       1.190100
     21 O4          -7.3560    -3.2580     0.9620 o          1 D8C      -0.522000
     22 C27         -4.7420    -3.1830     1.3150 c3         1 D8C      -0.378100
     23 CL1         -4.7410     0.0620     3.0920 cl         1 D8C      -0.194000
     24 O2          -2.2190     3.7740     0.0760 o          1 D8C      -0.584100
     25 N1          -1.3330     2.4370    -1.5160 n          1 D8C      -0.396800
     26 C7           0.9590     3.1290    -1.0840 c6         1 D8C      -0.077200
     27 C14          3.6330     2.0870    -0.2720 ca         1 D8C      -0.036000
     28 C17          4.2110    -0.6440    -0.6010 ca         1 D8C      -0.117300
     29 O3           2.0560    -0.9750    -1.4320 os         1 D8C      -0.330200
     30 O1           0.0790    -1.4840    -2.2190 o          1 D8C      -0.495000
     31 N3           6.3970    -0.2900     0.3560 nh         1 D8C      -0.794400
     32 C23          6.3900    -1.2370     1.4660 c6         1 D8C       0.193800
     33 C24          7.5210     0.6200     0.4590 c6         1 D8C       0.193800
     34 C25          8.8120    -0.1800     0.4800 c6         1 D8C       0.160300
     35 N4           8.8200    -1.1200     1.5810 n3         1 D8C      -0.718600
     36 C26         10.0700    -1.8400     1.6630 c3         1 D8C       0.153100
     37 H1           4.1300    -2.7610    -0.1490 hc         1 D8C       0.051367
     38 H2           4.0850    -2.3820    -1.8610 hc         1 D8C       0.051367
     39 H3           5.5960    -2.2290    -0.9680 hc         1 D8C       0.051367
     40 H4           7.6850    -2.6800     2.3610 h1         1 D8C       0.041200
     41 H5           7.7400    -2.6580     0.5940 h1         1 D8C       0.041200
     42 H6           5.5850     2.2610     0.5360 ha         1 D8C       0.123000
     43 H7          -1.1510     1.0260    -3.0500 h1         1 D8C       0.076200
     44 H8          -1.6550     0.3680    -1.5080 h1         1 D8C       0.076200
     45 H9          -3.9070     1.3780    -2.2570 ha         1 D8C       0.134000
     46 H10         -2.9100     1.8330     1.8900 ha         1 D8C       0.147000
     47 H11         -5.7200    -0.1560    -1.6490 ha         1 D8C       0.155000
     48 H12         -0.1290     3.3370    -2.9320 h1         1 D8C       0.069700
     49 H13         -0.6780     4.4190    -1.6580 h1         1 D8C       0.069700
     50 H14         -3.8640    -2.6360     0.9800 h1         1 D8C       0.106367
     51 H15         -4.9050    -3.0330     2.3790 h1         1 D8C       0.106367
     52 H16         -4.6140    -4.2440     1.1030 h1         1 D8C       0.106367
     53 H17         -6.7500    -0.8670     1.6920 hn         1 D8C       0.501000
     54 H18          0.8410     3.4130    -0.0340 hc         1 D8C       0.073200
     55 H19          1.7690     3.7430    -1.4810 hc         1 D8C       0.073200
     56 H20          3.4300     3.1410    -0.1400 ha         1 D8C       0.119000
     57 H21          5.5550    -1.9270     1.3680 h1         1 D8C       0.047200
     58 H22          6.2610    -0.7050     2.4200 h1         1 D8C       0.047200
     59 H23          7.5330     1.2850    -0.4050 h1         1 D8C       0.047200
     60 H24          7.4700     1.2440     1.3640 h1         1 D8C       0.047200
     61 H25          8.9340    -0.6850    -0.4940 h1         1 D8C       0.041200
     62 H26          9.6520     0.5090     0.5940 h1         1 D8C       0.041200
     63 H28         10.2720    -2.4620     0.7770 h1         1 D8C       0.032700
     64 H29         10.8990    -1.1390     1.7730 h1         1 D8C       0.032700
     65 H30         10.0680    -2.4950     2.5350 h1         1 D8C       0.032700
     66 N2          -6.3330    -1.0030     0.7760 nu         1 D8C      -0.874100
@<TRIPOS>BOND
     1     1     6 ar  
     2     1    28 ar  
     3     1    31 1   
     4     2    28 1   
     5     2    37 1   
     6     2    38 1   
     7     2    39 1   
     8     3     4 ar  
     9     3    15 ar  
    10     3    23 1   
    11     4    16 ar  
    12     4    66 1   
    13     5    32 1   
    14     5    35 1   
    15     5    40 1   
    16     5    41 1   
    17     6    27 ar  
    18     6    42 1   
    19     7     8 ar  
    20     7     9 1   
    21     7    27 ar  
    22     8    28 ar  
    23     8    29 1   
    24     9    12 2   
    25     9    26 1   
    26    10    12 1   
    27    10    29 1   
    28    10    30 2   
    29    11    12 1   
    30    11    25 1   
    31    11    43 1   
    32    11    44 1   
    33    13    14 ar  
    34    13    15 ar  
    35    13    18 1   
    36    14    16 ar  
    37    14    45 1   
    38    15    46 1   
    39    16    47 1   
    40    17    25 1   
    41    17    26 1   
    42    17    48 1   
    43    17    49 1   
    44    18    24 2   
    45    18    25 1   
    46    19    20 2   
    47    20    21 2   
    48    20    22 1   
    49    20    66 1   
    50    22    50 1   
    51    22    51 1   
    52    22    52 1   
    53    26    54 1   
    54    26    55 1   
    55    27    56 1   
    56    31    32 1   
    57    31    33 1   
    58    32    57 1   
    59    32    58 1   
    60    33    34 1   
    61    33    59 1   
    62    33    60 1   
    63    34    35 1   
    64    34    61 1   
    65    34    62 1   
    66    35    36 1   
    67    36    63 1   
    68    36    64 1   
    69    36    65 1   
    70    53    66 1   
@<TRIPOS>SUBSTRUCTURE
     1 D8C         1 TEMP              0 ****  ****    0 ROOT
