@<TRIPOS>MOLECULE
D8C
   66    70     1     0     0
SMALL
No Charge or Current Charge


@<TRIPOS>ATOM
      1 C16          5.4210     0.2180     0.0600 ca         1 D8C       0.329000
      2 C18          4.7850    -2.2020    -0.5210 c3         1 D8C      -0.036800
      3 C20         -5.2870     0.7620     1.4210 ca         1 D8C       0.072000
      4 C21         -5.7890    -0.0250     0.3600 ca         1 D8C       0.265000
      5 C22          8.3200    -1.6660     1.7140 c6         1 D8C       0.160300
      6 C15          5.0740     1.5730     0.1810 ca         1 D8C      -0.184000
      7 C13          2.7910     1.1040    -0.5420 ca         1 D8C      -0.172800
      8 C12          3.1380    -0.2560    -0.6530 ca         1 D8C       0.186100
      9 C11          1.4330     1.5740    -0.8510 cc         1 D8C       0.061600
     10 C10          0.8910    -0.8540    -1.2760 c          1 D8C       0.681300
     11 C8          -0.9570     0.8570    -1.4500 c6         1 D8C       0.156200
     12 C9           0.5160     0.5800    -1.1690 cd         1 D8C      -0.277400
     13 C3          -3.5240     1.6590    -0.0210 ca         1 D8C      -0.139600
     14 C4          -4.0480     0.9000    -1.0920 ca         1 D8C      -0.065000
     15 C2          -4.1730     1.5970     1.2290 ca         1 D8C      -0.046000
     16 C1          -5.1630     0.0650    -0.9000 ca         1 D8C      -0.088000
     17 C6          -0.3260     3.2410    -1.5700 c6         1 D8C       0.090000
     18 C5          -2.3390     2.5860    -0.1960 c          1 D8C       0.616700
     19 O5          -7.4170    -2.1480    -1.5060 o          1 D8C      -0.522000
     20 S1          -7.2370    -2.3400    -0.0660 s6         1 D8C       1.190100
     21 O4          -8.3240    -2.8690     0.7570 o          1 D8C      -0.522000
     22 C27         -5.7710    -3.3030     0.2310 c3         1 D8C      -0.378100
     23 Cl1         -6.0380     0.7100     3.0210 cl         1 D8C      -0.194000
     24 O2          -2.2900     3.6430     0.4210 o          1 D8C      -0.584100
     25 N1          -1.3430     2.2580    -1.1460 n          1 D8C      -0.396800
     26 C7           0.9900     3.0230    -0.8060 c6         1 D8C      -0.077200
     27 C14          3.7780     2.0150    -0.1150 ca         1 D8C      -0.036000
     28 C17          4.4460    -0.7120    -0.3680 ca         1 D8C      -0.117300
     29 O3           2.1910    -1.1670    -1.0280 os         1 D8C      -0.330200
     30 O1           0.0870    -1.7270    -1.5750 o          1 D8C      -0.495000
     31 N3           6.7330    -0.1910     0.3880 nh         1 D8C      -0.794400
     32 C23          6.9910    -0.8430     1.7090 c6         1 D8C       0.193800
     33 C24          7.9150     0.5770    -0.1140 c6         1 D8C       0.193800
     34 C25          9.2290    -0.2700    -0.0810 c6         1 D8C       0.160300
     35 N4           9.5010    -0.8640     1.2650 n3         1 D8C      -0.718600
     36 C26         10.7620    -1.6340     1.3060 c3         1 D8C       0.153100
     37 H1           4.5770    -2.7460     0.4070 hc         1 D8C       0.051367
     38 H2           4.2050    -2.6740    -1.3220 hc         1 D8C       0.051367
     39 H3           5.8400    -2.3620    -0.7730 hc         1 D8C       0.051367
     40 H4           8.4860    -2.0530     2.7310 h1         1 D8C       0.041200
     41 H5           8.1880    -2.5400     1.0580 h1         1 D8C       0.041200
     42 H6           5.8120     2.2920     0.5230 ha         1 D8C       0.123000
     43 H7          -1.1810     0.6490    -2.5070 h1         1 D8C       0.076200
     44 H8          -1.5630     0.1640    -0.8490 h1         1 D8C       0.076200
     45 H9          -3.6120     0.9710    -2.0860 ha         1 D8C       0.134000
     46 H10         -3.8060     2.1900     2.0640 ha         1 D8C       0.147000
     47 H11         -5.5440    -0.4930    -1.7480 ha         1 D8C       0.155000
     48 H12         -0.1450     3.1210    -2.6480 h1         1 D8C       0.069700
     49 H13         -0.6860     4.2690    -1.4170 h1         1 D8C       0.069700
     50 H14         -4.9430    -2.8240    -0.3020 h1         1 D8C       0.106367
     51 H15         -5.5950    -3.3150     1.3110 h1         1 D8C       0.106367
     52 H16         -5.9580    -4.3100    -0.1530 h1         1 D8C       0.106367
     53 H17         -7.2540    -0.8920     1.5270 hn         1 D8C       0.501000
     54 H18          0.8600     3.3410     0.2370 hc         1 D8C       0.073200
     55 H19          1.7510     3.6840    -1.2410 hc         1 D8C       0.073200
     56 H20          3.5530     3.0720     0.0040 ha         1 D8C       0.119000
     57 H21          6.1620    -1.5160     1.9730 h1         1 D8C       0.047200
     58 H22          7.0480    -0.0750     2.4940 h1         1 D8C       0.047200
     59 H23          7.7400     0.9100    -1.1480 h1         1 D8C       0.047200
     60 H24          8.0640     1.4770     0.5000 h1         1 D8C       0.047200
     61 H25          9.1440    -1.0690    -0.8330 h1         1 D8C       0.041200
     62 H26         10.0660     0.3720    -0.3900 h1         1 D8C       0.041200
     63 H28         10.7220    -2.4910     0.6190 h1         1 D8C       0.032700
     64 H29         11.6120    -1.0010     1.0160 h1         1 D8C       0.032700
     65 H30         10.9530    -2.0140     2.3180 h1         1 D8C       0.032700
     66 N2          -6.9020    -0.8490     0.5790 nu         1 D8C      -0.874100
@<TRIPOS>BOND
     1     1     6 ar  
     2     1    28 ar  
     3     1    31 1   
     4     2    28 1   
     5     2    37 1   
     6     2    38 1   
     7     2    39 1   
     8     3     4 ar  
     9     3    15 ar  
    10     3    23 1   
    11     4    16 ar  
    12     4    66 1   
    13     5    32 1   
    14     5    35 1   
    15     5    40 1   
    16     5    41 1   
    17     6    27 ar  
    18     6    42 1   
    19     7     8 ar  
    20     7     9 1   
    21     7    27 ar  
    22     8    28 ar  
    23     8    29 1   
    24     9    12 2   
    25     9    26 1   
    26    10    12 1   
    27    10    29 1   
    28    10    30 2   
    29    11    12 1   
    30    11    25 1   
    31    11    43 1   
    32    11    44 1   
    33    13    14 ar  
    34    13    15 ar  
    35    13    18 1   
    36    14    16 ar  
    37    14    45 1   
    38    15    46 1   
    39    16    47 1   
    40    17    25 1   
    41    17    26 1   
    42    17    48 1   
    43    17    49 1   
    44    18    24 2   
    45    18    25 1   
    46    19    20 2   
    47    20    21 2   
    48    20    22 1   
    49    20    66 1   
    50    22    50 1   
    51    22    51 1   
    52    22    52 1   
    53    26    54 1   
    54    26    55 1   
    55    27    56 1   
    56    31    32 1   
    57    31    33 1   
    58    32    57 1   
    59    32    58 1   
    60    33    34 1   
    61    33    59 1   
    62    33    60 1   
    63    34    35 1   
    64    34    61 1   
    65    34    62 1   
    66    35    36 1   
    67    36    63 1   
    68    36    64 1   
    69    36    65 1   
    70    53    66 1   
@<TRIPOS>SUBSTRUCTURE
     1 D8C         1 TEMP              0 ****  ****    0 ROOT
