@<TRIPOS>MOLECULE
D8D
   42    43     1     0     0
SMALL
No Charge or Current Charge


@<TRIPOS>ATOM
      1 C4           6.6620   -11.9140    33.4650 c6         1 D8D      -0.073400
      2 C5           5.8410   -10.7100    34.0120 c6         1 D8D      -0.068900
      3 C6           4.3640   -11.0690    34.3340 c6         1 D8D      -0.075400
      4 N1           8.4850   -14.3410    34.0470 n3         1 D8D      -0.740600
      5 C7           3.8310   -12.1630    33.3830 c6         1 D8D      -0.068900
      6 C8           4.6490   -13.4820    33.5000 c6         1 D8D      -0.073400
      7 C9           9.4140   -15.3290    33.4650 c5         1 D8D       0.201800
      8 C10         10.7350   -14.8600    34.1060 c5         1 D8D      -0.087400
      9 C11         10.3180   -14.7300    35.5960 c5         1 D8D      -0.077400
     10 C12          8.7890   -14.3670    35.5360 c5         1 D8D       0.066500
     11 C13          8.5190   -13.0470    36.3840 c          1 D8D       0.719000
     12 O2           7.7080   -13.0960    37.3010 o          1 D8D      -0.729000
     13 O1           9.1420   -12.0170    36.1470 o          1 D8D      -0.729000
     14 C2           7.0470   -14.4880    33.6210 c3         1 D8D       0.172500
     15 C1           6.3790   -15.8700    33.9750 c          1 D8D       0.552100
     16 O            5.9700   -16.1630    35.0950 o          1 D8D      -0.607100
     17 N            6.2660   -16.7570    32.9210 ns         1 D8D      -0.520900
     18 C            5.6760   -18.0910    33.0230 c3         1 D8D       0.099300
     19 C3           6.1220   -13.2740    33.9950 c6         1 D8D      -0.049700
     20 H1           7.7190   -11.7760    33.7270 hc         1 D8D       0.044950
     21 H2           6.6230   -11.9160    32.3670 hc         1 D8D       0.044950
     22 H3           6.3180   -10.3190    34.9210 hc         1 D8D       0.031450
     23 H4           5.8740    -9.8940    33.2770 hc         1 D8D       0.031450
     24 H5           3.7380   -10.1690    34.2680 hc         1 D8D       0.030200
     25 H6           4.2860   -11.4220    35.3720 hc         1 D8D       0.030200
     26 H8           3.8790   -11.7930    32.3490 hc         1 D8D       0.031450
     27 H9           2.7710   -12.3620    33.5890 hc         1 D8D       0.031450
     28 H10          4.1320   -14.1630    34.1900 hc         1 D8D       0.044950
     29 H11          4.6430   -13.9820    32.5210 hc         1 D8D       0.044950
     30 H12          9.1600   -16.3560    33.7630 h1         1 D8D       0.004200
     31 H13          9.4450   -15.2770    32.3690 h1         1 D8D       0.004200
     32 H14         11.5510   -15.5750    33.9570 hc         1 D8D       0.042700
     33 H15         11.0580   -13.8970    33.6920 hc         1 D8D       0.042700
     34 H16         10.4610   -15.6780    36.1270 hc         1 D8D       0.034700
     35 H17         10.9260   -13.9840    36.1200 hc         1 D8D       0.034700
     36 H18          8.2250   -15.1720    36.0240 h1         1 D8D       0.057700
     37 H20          7.0620   -14.4700    32.5220 h1         1 D8D       0.028700
     38 H21          6.6300   -16.4560    32.0230 hn         1 D8D       0.306500
     39 H22          5.7130   -18.5830    32.0430 h1         1 D8D       0.027367
     40 H23          6.2400   -18.6890    33.7510 h1         1 D8D       0.027367
     41 H24          4.6310   -18.0080    33.3480 h1         1 D8D       0.027367
     42 H25          6.1010   -13.2340    35.0920 hc         1 D8D       0.086700
@<TRIPOS>BOND
     1     1     2 1   
     2     1    19 1   
     3     1    20 1   
     4     1    21 1   
     5     2     3 1   
     6     2    22 1   
     7     2    23 1   
     8     3     5 1   
     9     3    24 1   
    10     3    25 1   
    11     4     7 1   
    12     4    10 1   
    13     4    14 1   
    14     5     6 1   
    15     5    26 1   
    16     5    27 1   
    17     6    19 1   
    18     6    28 1   
    19     6    29 1   
    20     7     8 1   
    21     7    30 1   
    22     7    31 1   
    23     8     9 1   
    24     8    32 1   
    25     8    33 1   
    26     9    10 1   
    27     9    34 1   
    28     9    35 1   
    29    10    11 1   
    30    10    36 1   
    31    11    12 1   
    32    11    13 1   
    33    14    15 1   
    34    14    19 1   
    35    14    37 1   
    36    15    16 2   
    37    15    17 1   
    38    17    18 1   
    39    17    38 1   
    40    18    39 1   
    41    18    40 1   
    42    18    41 1   
    43    19    42 1   
@<TRIPOS>SUBSTRUCTURE
     1 D8D         1 TEMP              0 ****  ****    0 ROOT
