@<TRIPOS>MOLECULE
D8D
   42    43     1     0     0
SMALL
abcg2


@<TRIPOS>ATOM
      1 C4           6.5670   -11.9470    33.4450 c6         1 D8D      -0.073400
      2 C5           5.7380   -10.8220    34.0760 c6         1 D8D      -0.068900
      3 C6           4.2840   -11.2490    34.3300 c6         1 D8D      -0.075400
      4 N1           8.4350   -14.2300    34.0570 n3         1 D8D      -0.740600
      5 C7           3.8570   -12.3150    33.3290 c6         1 D8D      -0.068900
      6 C8           4.6910   -13.5950    33.4970 c6         1 D8D      -0.073400
      7 C9           9.4480   -15.0640    33.4300 c5         1 D8D       0.201800
      8 C10         10.5920   -15.0790    34.4310 c5         1 D8D      -0.087400
      9 C11          9.8390   -15.0770    35.7560 c5         1 D8D      -0.077400
     10 C12          8.6830   -14.0970    35.4920 c5         1 D8D       0.066500
     11 C13          9.0990   -12.6810    35.9640 c          1 D8D       0.719000
     12 O2           8.8960   -12.4610    37.1780 o          1 D8D      -0.729000
     13 O1           9.6430   -11.9060    35.1530 o          1 D8D      -0.729000
     14 C2           7.0900   -14.4210    33.5660 c3         1 D8D       0.172500
     15 C1           6.5200   -15.7950    33.9480 c          1 D8D       0.552100
     16 O            6.2790   -16.1130    35.1080 o          1 D8D      -0.607100
     17 N            6.3150   -16.6410    32.9270 ns         1 D8D      -0.520900
     18 C            5.7790   -17.9680    33.1120 c3         1 D8D       0.099300
     19 C3           6.1250   -13.3050    33.9810 c6         1 D8D      -0.049700
     20 H1           7.6260   -11.7900    33.6380 hc         1 D8D       0.044950
     21 H2           6.4410   -11.9440    32.3560 hc         1 D8D       0.044950
     22 H3           6.1990   -10.5160    35.0190 hc         1 D8D       0.031450
     23 H4           5.7630    -9.9450    33.4250 hc         1 D8D       0.031450
     24 H5           3.6190   -10.3840    34.2810 hc         1 D8D       0.030200
     25 H6           4.1790   -11.6520    35.3420 hc         1 D8D       0.030200
     26 H8           3.9760   -11.9210    32.3150 hc         1 D8D       0.031450
     27 H9           2.7960   -12.5470    33.4390 hc         1 D8D       0.031450
     28 H10          4.1940   -14.2660    34.2010 hc         1 D8D       0.044950
     29 H11          4.7260   -14.1240    32.5390 hc         1 D8D       0.044950
     30 H12          9.1050   -16.0960    33.2580 h1         1 D8D       0.004200
     31 H13          9.7410   -14.6660    32.4530 h1         1 D8D       0.004200
     32 H14         11.2460   -15.9410    34.3030 hc         1 D8D       0.042700
     33 H15         11.2000   -14.1770    34.3390 hc         1 D8D       0.042700
     34 H16          9.4410   -16.0770    35.9540 hc         1 D8D       0.034700
     35 H17         10.4530   -14.7970    36.6130 hc         1 D8D       0.034700
     36 H18          7.8110   -14.3980    36.0740 h1         1 D8D       0.057700
     37 H20          7.1530   -14.3770    32.4700 h1         1 D8D       0.028700
     38 H21          6.5330   -16.3410    31.9920 hn         1 D8D       0.306500
     39 H22          5.6600   -18.4340    32.1380 h1         1 D8D       0.027367
     40 H23          6.4440   -18.5920    33.7110 h1         1 D8D       0.027367
     41 H24          4.8060   -17.9420    33.6020 h1         1 D8D       0.027367
     42 H25          6.1120   -13.2510    35.0760 hc         1 D8D       0.086700
@<TRIPOS>BOND
     1     1     2 1   
     2     1    19 1   
     3     1    20 1   
     4     1    21 1   
     5     2     3 1   
     6     2    22 1   
     7     2    23 1   
     8     3     5 1   
     9     3    24 1   
    10     3    25 1   
    11     4     7 1   
    12     4    10 1   
    13     4    14 1   
    14     5     6 1   
    15     5    26 1   
    16     5    27 1   
    17     6    19 1   
    18     6    28 1   
    19     6    29 1   
    20     7     8 1   
    21     7    30 1   
    22     7    31 1   
    23     8     9 1   
    24     8    32 1   
    25     8    33 1   
    26     9    10 1   
    27     9    34 1   
    28     9    35 1   
    29    10    11 1   
    30    10    36 1   
    31    11    12 1   
    32    11    13 1   
    33    14    15 1   
    34    14    19 1   
    35    14    37 1   
    36    15    16 2   
    37    15    17 1   
    38    17    18 1   
    39    17    38 1   
    40    18    39 1   
    41    18    40 1   
    42    18    41 1   
    43    19    42 1   
@<TRIPOS>SUBSTRUCTURE
     1 D8D         1 TEMP              0 ****  ****    0 ROOT
