@<TRIPOS>MOLECULE
D8E
   72    74     1     0     0
SMALL
No Charge or Current Charge


@<TRIPOS>ATOM
      1 C2         -27.9020     5.1530     0.0100 c3         1 D8E       0.037700
      2 C3         -28.0840     5.8670     1.3690 c3         1 D8E      -0.033100
      3 C13        -25.8020     6.9480    -2.7300 c3         1 D8E       0.103700
      4 C14        -26.0330     8.4440    -3.0810 c3         1 D8E       0.147600
      5 C15        -25.7660     6.0590    -4.0050 c3         1 D8E      -0.079400
      6 C17        -25.1900     4.6350    -3.7690 c3         1 D8E      -0.149400
      7 C18        -25.5030     3.5660    -4.8390 c          1 D8E       0.598100
      8 C21        -29.3320     5.4010     2.1120 ca         1 D8E      -0.100300
      9 C22        -29.2210     4.5360     3.2200 ca         1 D8E      -0.080000
     10 C23        -30.3760     4.0950     3.8910 ca         1 D8E      -0.139500
     11 C24        -31.6410     4.5180     3.4560 ca         1 D8E       0.173000
     12 C25        -31.7610     5.3790     2.3550 ca         1 D8E      -0.139500
     13 C26        -30.6070     5.8200     1.6820 ca         1 D8E      -0.080000
     14 C27        -24.4010     1.7530    -3.4020 c3         1 D8E       0.106000
     15 C28        -25.1730     0.8850    -2.3760 c3         1 D8E      -0.096400
     16 C29        -26.5400     1.4570    -1.9310 c3         1 D8E      -0.083400
     17 N1         -27.8700     3.6810     0.1810 ns         1 D8E      -0.495900
     18 C4         -28.7870     2.8090    -0.3740 c          1 D8E       0.584100
     19 O5         -29.7540     3.2150    -1.0070 o          1 D8E      -0.598100
     20 C6         -28.4880     1.2880    -0.1880 c3         1 D8E       0.042700
     21 N7         -29.4940     0.4820    -0.9150 ns         1 D8E      -0.474900
     22 C8         -27.0380     0.8770    -0.5830 c3         1 D8E      -0.083400
     23 C9         -29.8050    -0.8410    -0.6580 c          1 D8E       0.526600
     24 C10        -26.6160     5.6220    -0.7220 c          1 D8E       0.588100
     25 N11        -26.8340     6.4630    -1.7940 ns         1 D8E      -0.487900
     26 O12        -25.4940     5.2520    -0.3970 o          1 D8E      -0.616100
     27 O16        -26.0570     9.2550    -1.8950 oh         1 D8E      -0.660000
     28 O19        -26.0260     3.8840    -5.9000 o          1 D8E      -0.610100
     29 N20        -25.1990     2.2020    -4.5750 n          1 D8E      -0.417800
     30 F30        -32.7500     4.0940     4.1010 f          1 D8E      -0.183000
     31 C31        -30.8600    -1.4030    -1.5650 cc         1 D8E       0.240500
     32 O32        -29.2540    -1.4680     0.2410 o          1 D8E      -0.584100
     33 N33        -31.4730    -0.7420    -2.5440 nd         1 D8E      -0.357300
     34 O34        -32.3810    -1.7110    -3.1060 os         1 D8E      -0.084700
     35 C35        -32.2410    -2.8850    -2.4150 cd         1 D8E       0.184300
     36 C36        -31.3050    -2.7360    -1.4490 cc         1 D8E      -0.201000
     37 C37        -33.0770    -4.0730    -2.7960 c3         1 D8E      -0.136400
     38 C38        -25.5470     1.1690    -5.5770 c3         1 D8E       0.088300
     39 H1         -28.7540     5.4210    -0.6280 h1         1 D8E       0.083700
     40 H2         -27.1900     5.7010     1.9830 hc         1 D8E       0.069200
     41 H3         -28.1350     6.9500     1.1980 hc         1 D8E       0.069200
     42 H4         -24.8200     6.8830    -2.2420 h1         1 D8E       0.092700
     43 H5         -25.2310     8.7810    -3.7520 h1         1 D8E       0.029700
     44 H6         -26.9830     8.5420    -3.6250 h1         1 D8E       0.029700
     45 H7         -25.1650     6.5500    -4.7810 hc         1 D8E       0.063700
     46 H8         -26.7870     5.9830    -4.4030 hc         1 D8E       0.063700
     47 H9         -25.5080     4.2330    -2.8080 hc         1 D8E       0.064700
     48 H10        -24.1040     4.6730    -3.6330 hc         1 D8E       0.064700
     49 H11        -28.2430     4.2010     3.5590 ha         1 D8E       0.112500
     50 H12        -30.2910     3.4280     4.7440 ha         1 D8E       0.132500
     51 H13        -32.7440     5.7010     2.0230 ha         1 D8E       0.132500
     52 H14        -30.7050     6.4840     0.8260 ha         1 D8E       0.112500
     53 H15        -23.5480     1.1700    -3.7720 h1         1 D8E       0.053200
     54 H16        -23.9680     2.6080    -2.8710 h1         1 D8E       0.053200
     55 H17        -25.3310    -0.1160    -2.7950 hc         1 D8E       0.046700
     56 H18        -24.5280     0.7540    -1.4990 hc         1 D8E       0.046700
     57 H19        -26.4560     2.5420    -1.8280 hc         1 D8E       0.054700
     58 H20        -27.2820     1.2680    -2.7170 hc         1 D8E       0.054700
     59 H21        -27.0820     3.2710     0.6700 hn         1 D8E       0.323500
     60 H22        -28.6130     1.0860     0.8840 h1         1 D8E       0.084700
     61 H23        -30.0270     0.9350    -1.6520 hn         1 D8E       0.342500
     62 H24        -26.9630    -0.2170    -0.6080 hc         1 D8E       0.055200
     63 H25        -26.3520     1.2060     0.2080 hc         1 D8E       0.055200
     64 H26        -27.7930     6.7390    -1.9670 hn         1 D8E       0.321500
     65 H27        -26.2080    10.1830    -2.1830 ho         1 D8E       0.444000
     66 H28        -30.9600    -3.4720    -0.7310 ha         1 D8E       0.169000
     67 H29        -32.8570    -4.9330    -2.1530 hc         1 D8E       0.065033
     68 H30        -34.1450    -3.8450    -2.7020 hc         1 D8E       0.065033
     69 H31        -32.8830    -4.3690    -3.8330 hc         1 D8E       0.065033
     70 H32        -25.2220     0.1770    -5.2400 h1         1 D8E       0.042700
     71 H33        -26.6340     1.1530    -5.7280 h1         1 D8E       0.042700
     72 H34        -25.0540     1.3960    -6.5310 h1         1 D8E       0.042700
@<TRIPOS>BOND
     1     1     2 1   
     2     1    17 1   
     3     1    24 1   
     4     1    39 1   
     5     2     8 1   
     6     2    40 1   
     7     2    41 1   
     8     3     4 1   
     9     3     5 1   
    10     3    25 1   
    11     3    42 1   
    12     4    27 1   
    13     4    43 1   
    14     4    44 1   
    15     5     6 1   
    16     5    45 1   
    17     5    46 1   
    18     6     7 1   
    19     6    47 1   
    20     6    48 1   
    21     7    28 2   
    22     7    29 1   
    23     8     9 ar  
    24     8    13 ar  
    25     9    10 ar  
    26     9    49 1   
    27    10    11 ar  
    28    10    50 1   
    29    11    12 ar  
    30    11    30 1   
    31    12    13 ar  
    32    12    51 1   
    33    13    52 1   
    34    14    15 1   
    35    14    29 1   
    36    14    53 1   
    37    14    54 1   
    38    15    16 1   
    39    15    55 1   
    40    15    56 1   
    41    16    22 1   
    42    16    57 1   
    43    16    58 1   
    44    17    18 1   
    45    17    59 1   
    46    18    19 2   
    47    18    20 1   
    48    20    21 1   
    49    20    22 1   
    50    20    60 1   
    51    21    23 1   
    52    21    61 1   
    53    22    62 1   
    54    22    63 1   
    55    23    31 1   
    56    23    32 2   
    57    24    25 1   
    58    24    26 2   
    59    25    64 1   
    60    27    65 1   
    61    29    38 1   
    62    31    33 2   
    63    31    36 1   
    64    33    34 1   
    65    34    35 1   
    66    35    36 2   
    67    35    37 1   
    68    36    66 1   
    69    37    67 1   
    70    37    68 1   
    71    37    69 1   
    72    38    70 1   
    73    38    71 1   
    74    38    72 1   
@<TRIPOS>SUBSTRUCTURE
     1 D8E         1 TEMP              0 ****  ****    0 ROOT
