@<TRIPOS>MOLECULE
D8E
   72    74     1     0     0
SMALL
abcg2


@<TRIPOS>ATOM
      1 C2         -28.0410     4.9480     0.0560 c3         1 D8E       0.037700
      2 C3         -28.1700     5.6240     1.4270 c3         1 D8E      -0.033100
      3 C13        -26.4580     6.6380    -2.9960 c3         1 D8E       0.103700
      4 C14        -27.1060     7.9310    -3.4670 c3         1 D8E       0.147600
      5 C15        -26.1940     5.6930    -4.1750 c3         1 D8E      -0.079400
      6 C17        -25.2890     4.5370    -3.7670 c3         1 D8E      -0.149400
      7 C18        -25.3110     3.3650    -4.7390 c          1 D8E       0.598100
      8 C21        -29.2950     5.0230     2.2290 ca         1 D8E      -0.100300
      9 C22        -29.0430     4.0700     3.2150 ca         1 D8E      -0.080000
     10 C23        -30.0820     3.4550     3.9080 ca         1 D8E      -0.139500
     11 C24        -31.3790     3.8130     3.5940 ca         1 D8E       0.173000
     12 C25        -31.6750     4.7600     2.6310 ca         1 D8E      -0.139500
     13 C26        -30.6210     5.3610     1.9520 ca         1 D8E      -0.080000
     14 C27        -23.8600     2.0740    -3.1690 c3         1 D8E       0.106000
     15 C28        -24.5300     1.0890    -2.2040 c3         1 D8E      -0.096400
     16 C29        -25.9900     1.4330    -1.9050 c3         1 D8E      -0.083400
     17 N1         -27.7830     3.5260     0.2080 ns         1 D8E      -0.495900
     18 C4         -28.3240     2.6020    -0.6080 c          1 D8E       0.584100
     19 O5         -29.0380     2.8860    -1.5630 o          1 D8E      -0.598100
     20 C6         -27.9510     1.1470    -0.2620 c3         1 D8E       0.042700
     21 N7         -28.8190     0.2300    -0.9660 ns         1 D8E      -0.474900
     22 C8         -26.4720     0.8580    -0.5760 c3         1 D8E      -0.083400
     23 C9         -30.1160     0.1000    -0.6410 c          1 D8E       0.526600
     24 C10        -26.9270     5.5990    -0.7780 c          1 D8E       0.588100
     25 N11        -27.3090     5.9910    -2.0030 ns         1 D8E      -0.487900
     26 O12        -25.7860     5.7200    -0.3330 o          1 D8E      -0.616100
     27 O16        -27.2410     8.8130    -2.3540 oh         1 D8E      -0.660000
     28 O19        -25.9630     3.4180    -5.7870 o          1 D8E      -0.610100
     29 N20        -24.5900     2.2640    -4.4210 n          1 D8E      -0.417800
     30 F30        -32.4030     3.2120     4.2580 f          1 D8E      -0.183000
     31 C31        -30.9230    -0.7930    -1.5250 cc         1 D8E       0.240500
     32 O32        -30.6410     0.6560     0.3210 o          1 D8E      -0.584100
     33 N33        -30.3970    -1.3990    -2.5620 nd         1 D8E      -0.357300
     34 O34        -31.4380    -2.1120    -3.1430 os         1 D8E      -0.084700
     35 C35        -32.5740    -1.9140    -2.4310 cd         1 D8E       0.184300
     36 C36        -32.3040    -1.0830    -1.3900 cc         1 D8E      -0.201000
     37 C37        -33.7960    -2.6010    -2.9030 c3         1 D8E      -0.136400
     38 C38        -24.6320     1.1240    -5.3280 c3         1 D8E       0.088300
     39 H1         -28.9880     5.0350    -0.4750 h1         1 D8E       0.083700
     40 H2         -27.2230     5.5250     1.9600 hc         1 D8E       0.069200
     41 H3         -28.3430     6.6890     1.2600 hc         1 D8E       0.069200
     42 H4         -25.5220     6.8810    -2.4930 h1         1 D8E       0.092700
     43 H5         -26.4730     8.3770    -4.2400 h1         1 D8E       0.029700
     44 H6         -28.0850     7.7120    -3.9090 h1         1 D8E       0.029700
     45 H7         -25.7420     6.2550    -4.9940 hc         1 D8E       0.063700
     46 H8         -27.1480     5.3110    -4.5410 hc         1 D8E       0.063700
     47 H9         -25.5880     4.1800    -2.7830 hc         1 D8E       0.064700
     48 H10        -24.2610     4.8900    -3.6560 hc         1 D8E       0.064700
     49 H11        -28.0210     3.7970     3.4460 ha         1 D8E       0.112500
     50 H12        -29.8920     2.7120     4.6710 ha         1 D8E       0.132500
     51 H13        -32.7040     5.0180     2.4200 ha         1 D8E       0.132500
     52 H14        -30.8370     6.1010     1.1910 ha         1 D8E       0.112500
     53 H15        -22.8570     1.7170    -3.4160 h1         1 D8E       0.053200
     54 H16        -23.7430     3.0350    -2.6780 h1         1 D8E       0.053200
     55 H17        -24.4610     0.0710    -2.5950 hc         1 D8E       0.046700
     56 H18        -23.9470     1.1070    -1.2780 hc         1 D8E       0.046700
     57 H19        -26.1010     2.5170    -1.8580 hc         1 D8E       0.054700
     58 H20        -26.6250     1.0960    -2.7280 hc         1 D8E       0.054700
     59 H21        -27.1910     3.2270     0.9680 hn         1 D8E       0.323500
     60 H22        -28.1180     1.0090     0.8070 h1         1 D8E       0.084700
     61 H23        -28.4950    -0.1970    -1.8220 hn         1 D8E       0.342500
     62 H24        -26.3270    -0.2240    -0.5400 hc         1 D8E       0.055200
     63 H25        -25.8670     1.2820     0.2280 hc         1 D8E       0.055200
     64 H26        -28.2640     5.8090    -2.2770 hn         1 D8E       0.321500
     65 H27        -27.7400     9.5880    -2.6390 ho         1 D8E       0.444000
     66 H28        -32.9820    -0.7250    -0.6370 ha         1 D8E       0.169000
     67 H29        -33.6600    -3.6840    -2.8860 hc         1 D8E       0.065033
     68 H30        -34.6340    -2.3400    -2.2590 hc         1 D8E       0.065033
     69 H31        -34.0320    -2.3070    -3.9280 hc         1 D8E       0.065033
     70 H32        -23.7910     0.4700    -5.1040 h1         1 D8E       0.042700
     71 H33        -25.5590     0.5560    -5.2150 h1         1 D8E       0.042700
     72 H34        -24.5600     1.4630    -6.3590 h1         1 D8E       0.042700
@<TRIPOS>BOND
     1     1     2 1   
     2     1    17 1   
     3     1    24 1   
     4     1    39 1   
     5     2     8 1   
     6     2    40 1   
     7     2    41 1   
     8     3     4 1   
     9     3     5 1   
    10     3    25 1   
    11     3    42 1   
    12     4    27 1   
    13     4    43 1   
    14     4    44 1   
    15     5     6 1   
    16     5    45 1   
    17     5    46 1   
    18     6     7 1   
    19     6    47 1   
    20     6    48 1   
    21     7    28 2   
    22     7    29 1   
    23     8     9 ar  
    24     8    13 ar  
    25     9    10 ar  
    26     9    49 1   
    27    10    11 ar  
    28    10    50 1   
    29    11    12 ar  
    30    11    30 1   
    31    12    13 ar  
    32    12    51 1   
    33    13    52 1   
    34    14    15 1   
    35    14    29 1   
    36    14    53 1   
    37    14    54 1   
    38    15    16 1   
    39    15    55 1   
    40    15    56 1   
    41    16    22 1   
    42    16    57 1   
    43    16    58 1   
    44    17    18 1   
    45    17    59 1   
    46    18    19 2   
    47    18    20 1   
    48    20    21 1   
    49    20    22 1   
    50    20    60 1   
    51    21    23 1   
    52    21    61 1   
    53    22    62 1   
    54    22    63 1   
    55    23    31 1   
    56    23    32 2   
    57    24    25 1   
    58    24    26 2   
    59    25    64 1   
    60    27    65 1   
    61    29    38 1   
    62    31    33 2   
    63    31    36 1   
    64    33    34 1   
    65    34    35 1   
    66    35    36 2   
    67    35    37 1   
    68    36    66 1   
    69    37    67 1   
    70    37    68 1   
    71    37    69 1   
    72    38    70 1   
    73    38    71 1   
    74    38    72 1   
@<TRIPOS>SUBSTRUCTURE
     1 D8E         1 TEMP              0 ****  ****    0 ROOT
