@<TRIPOS>MOLECULE
D8F
   32    32     1     0     0
SMALL
No Charge or Current Charge


@<TRIPOS>ATOM
      1 CAF         -8.7230   -22.6360   -13.1040 c3         1 D8F      -0.079400
      2 CAG        -10.2720   -22.7010   -13.0140 c3         1 D8F      -0.064400
      3 CAH         -8.0920   -21.2380   -12.8880 c3         1 D8F      -0.077400
      4 CAI        -11.0400   -21.8260   -14.0400 c3         1 D8F      -0.134400
      5 CAJ         -8.3800   -20.6150   -11.5060 c3         1 D8F      -0.090100
      6 CAK        -10.6870   -22.1780   -15.4880 c          1 D8F       0.598100
      7 CAL         -9.3040   -21.3600   -17.3060 ca         1 D8F       0.152100
      8 CAM        -10.1830   -21.4590   -18.3990 ca         1 D8F      -0.125000
      9 CAN         -7.9230   -21.2670   -17.5260 ca         1 D8F      -0.125000
     10 CAO         -8.2830   -21.4140   -19.9410 ca         1 D8F      -0.182200
     11 CAP         -9.6780   -21.4920   -19.7110 ca         1 D8F      -0.034000
     12 CAQ         -7.4080   -21.2980   -18.8340 ca         1 D8F      -0.034000
     13 NAE         -7.7400   -21.4480   -21.3380 no         1 D8F       0.696200
     14 OAA         -9.7730   -21.3050   -16.0160 os         1 D8F      -0.369200
     15 OAB        -11.1590   -23.1360   -16.0840 o          1 D8F      -0.452000
     16 OAC         -8.5420   -21.5490   -22.2760 o          1 D8F      -0.397000
     17 OAD         -6.5130   -21.3750   -21.4910 o          1 D8F      -0.397000
     18 HAF1        -8.3050   -23.3250   -12.3590 hc         1 D8F       0.047700
     19 HAF2        -8.4020   -23.0200   -14.0800 hc         1 D8F       0.047700
     20 HAG2       -10.5890   -22.4250   -12.0010 hc         1 D8F       0.053200
     21 HAG1       -10.5790   -23.7460   -13.1490 hc         1 D8F       0.053200
     22 HAH1        -7.0050   -21.3290   -13.0060 hc         1 D8F       0.038200
     23 HAH2        -8.4270   -20.5490   -13.6720 hc         1 D8F       0.038200
     24 HAI1       -10.7940   -20.7760   -13.8490 hc         1 D8F       0.076700
     25 HAI2       -12.1140   -21.9870   -13.8930 hc         1 D8F       0.076700
     26 HAJ2        -7.8310   -19.6720   -11.3930 hc         1 D8F       0.032033
     27 HAJ3        -9.4480   -20.4000   -11.3850 hc         1 D8F       0.032033
     28 HAJ1        -8.0660   -21.2910   -10.7020 hc         1 D8F       0.032033
     29 HAM1       -11.2570   -21.5060   -18.2370 ha         1 D8F       0.139500
     30 HAN1        -7.2480   -21.1730   -16.6790 ha         1 D8F       0.139500
     31 HAP1       -10.3770   -21.5730   -20.5420 ha         1 D8F       0.155000
     32 HAQ1        -6.3310   -21.2300   -18.9770 ha         1 D8F       0.155000
@<TRIPOS>BOND
     1     1     2 1   
     2     1     3 1   
     3     1    18 1   
     4     1    19 1   
     5     2     4 1   
     6     2    20 1   
     7     2    21 1   
     8     3     5 1   
     9     3    22 1   
    10     3    23 1   
    11     4     6 1   
    12     4    24 1   
    13     4    25 1   
    14     5    26 1   
    15     5    27 1   
    16     5    28 1   
    17     6    14 1   
    18     6    15 2   
    19     7     8 ar  
    20     7     9 ar  
    21     7    14 1   
    22     8    11 ar  
    23     8    29 1   
    24     9    12 ar  
    25     9    30 1   
    26    10    11 ar  
    27    10    12 ar  
    28    10    13 1   
    29    11    31 1   
    30    12    32 1   
    31    13    16 1   
    32    13    17 1   
@<TRIPOS>SUBSTRUCTURE
     1 D8F         1 TEMP              0 ****  ****    0 ROOT
