@<TRIPOS>MOLECULE
D8F
   32    32     1     0     0
SMALL
bcc


@<TRIPOS>ATOM
      1 CAF         -8.7730   -22.7710   -12.7190 c3         1 D8F      -0.079400
      2 CAG        -10.2380   -22.5740   -13.1060 c3         1 D8F      -0.064400
      3 CAH         -8.0580   -21.5080   -12.2420 c3         1 D8F      -0.077400
      4 CAI        -10.4690   -21.5440   -14.2040 c3         1 D8F      -0.134400
      5 CAJ         -8.7130   -20.8470   -11.0370 c3         1 D8F      -0.090100
      6 CAK         -9.9370   -21.9590   -15.5420 c          1 D8F       0.647100
      7 CAL         -9.3400   -21.1190   -17.6390 ca         1 D8F       0.152100
      8 CAM        -10.2850   -21.3120   -18.6350 ca         1 D8F      -0.143000
      9 CAN         -7.9840   -21.1080   -17.9250 ca         1 D8F      -0.143000
     10 CAO         -8.5110   -21.4750   -20.2240 ca         1 D8F      -0.182200
     11 CAP         -9.8690   -21.4890   -19.9420 ca         1 D8F      -0.052000
     12 CAQ         -7.5620   -21.2860   -19.2300 ca         1 D8F      -0.052000
     13 NAE         -8.0710   -21.6620   -21.5980 no         1 D8F       0.316200
     14 OAA         -9.7570   -20.8870   -16.3520 os         1 D8F      -0.369200
     15 OAB         -9.7140   -23.0780   -15.9110 o          1 D8F      -0.501000
     16 OAC         -8.9160   -21.7890   -22.4520 o          1 D8F      -0.207000
     17 OAD         -6.8830   -21.6800   -21.8160 o          1 D8F      -0.207000
     18 HAF1        -8.7320   -23.5210   -11.9230 hc         1 D8F       0.047700
     19 HAF2        -8.2210   -23.1990   -13.5600 hc         1 D8F       0.047700
     20 HAG2       -10.8080   -22.2560   -12.2310 hc         1 D8F       0.053200
     21 HAG1       -10.6670   -23.5320   -13.4070 hc         1 D8F       0.053200
     22 HAH1        -7.0280   -21.7740   -11.9910 hc         1 D8F       0.038200
     23 HAH2        -7.9810   -20.7850   -13.0600 hc         1 D8F       0.038200
     24 HAI1       -10.0600   -20.5680   -13.9340 hc         1 D8F       0.076700
     25 HAI2       -11.5440   -21.3800   -14.3390 hc         1 D8F       0.076700
     26 HAJ2        -8.1190   -20.0040   -10.6810 hc         1 D8F       0.032033
     27 HAJ3        -9.7080   -20.4650   -11.2680 hc         1 D8F       0.032033
     28 HAJ1        -8.8170   -21.5510   -10.2090 hc         1 D8F       0.032033
     29 HAM1       -11.3400   -21.3140   -18.3980 ha         1 D8F       0.157500
     30 HAN1        -7.2590   -20.9530   -17.1380 ha         1 D8F       0.157500
     31 HAP1       -10.6040   -21.6360   -20.7200 ha         1 D8F       0.173000
     32 HAQ1        -6.5050   -21.2760   -19.4540 ha         1 D8F       0.173000
@<TRIPOS>BOND
     1     1     2 1   
     2     1     3 1   
     3     1    18 1   
     4     1    19 1   
     5     2     4 1   
     6     2    20 1   
     7     2    21 1   
     8     3     5 1   
     9     3    22 1   
    10     3    23 1   
    11     4     6 1   
    12     4    24 1   
    13     4    25 1   
    14     5    26 1   
    15     5    27 1   
    16     5    28 1   
    17     6    14 1   
    18     6    15 2   
    19     7     8 ar  
    20     7     9 ar  
    21     7    14 1   
    22     8    11 ar  
    23     8    29 1   
    24     9    12 ar  
    25     9    30 1   
    26    10    11 ar  
    27    10    12 ar  
    28    10    13 1   
    29    11    31 1   
    30    12    32 1   
    31    13    16 1   
    32    13    17 1   
@<TRIPOS>SUBSTRUCTURE
     1 D8F         1 TEMP              0 ****  ****    0 ROOT
