@<TRIPOS>MOLECULE
D8G
   37    40     1     0     0
SMALL
No Charge or Current Charge


@<TRIPOS>ATOM
      1 OAC         -0.9930    -2.2590    -0.9860 o          1 D8G      -0.562000
      2 CAQ         -0.5310    -1.1290    -0.8760 c          1 D8G       0.570600
      3 CAU          0.8660    -0.8450    -0.4930 cc         1 D8G      -0.193600
      4 NAV          1.9560    -1.6880    -0.1720 na         1 D8G       0.075000
      5 CAB          1.9420    -3.1560    -0.1440 c3         1 D8G       0.063900
      6 CAS          3.0480    -0.8660     0.1150 cc         1 D8G      -0.102000
      7 CAJ          4.3890    -1.0800     0.4930 cc         1 D8G      -0.126000
      8 CAN          5.0450     0.1310     0.6500 cd         1 D8G      -0.158300
      9 CAA          6.4820     0.3440     1.0450 c3         1 D8G      -0.028800
     10 SAM          3.9700     1.5440     0.3210 ss         1 D8G       0.200000
     11 CAT          2.6740     0.4020    -0.0150 cd         1 D8G      -0.201000
     12 CAR          1.3270     0.4500    -0.3910 cd         1 D8G      -0.146900
     13 CAI          0.4750     1.5810    -0.6530 cd         1 D8G       0.411800
     14 NAL         -0.7990     1.3780    -1.0030 nc         1 D8G      -0.436300
     15 NAW         -1.2790     0.0650    -1.1060 n          1 D8G      -0.136800
     16 CAK         -2.7060    -0.0430    -1.4850 c3         1 D8G       0.171300
     17 CAP         -3.6540    -0.0390    -0.2880 ca         1 D8G      -0.151300
     18 CAH         -3.9760    -1.2500     0.3590 ca         1 D8G      -0.051000
     19 CAF         -4.8430    -1.2560     1.4650 ca         1 D8G      -0.134000
     20 CAE         -5.3990    -0.0540     1.9350 ca         1 D8G      -0.076000
     21 CAG         -5.0850     1.1560     1.2940 ca         1 D8G      -0.161000
     22 CAO         -4.2180     1.1630     0.1900 ca         1 D8G       0.187000
     23 FAD         -3.9350     2.3400    -0.4130 f          1 D8G      -0.173000
     24 HAB          1.6860    -3.5360    -1.1400 h1         1 D8G       0.061700
     25 HABA         2.9280    -3.5360     0.1460 h1         1 D8G       0.061700
     26 HABB         1.1930    -3.5000     0.5800 h1         1 D8G       0.061700
     27 HAJ          4.8320    -2.0610     0.6370 ha         1 D8G       0.138000
     28 HAA          7.0270     0.8870     0.2650 hc         1 D8G       0.050033
     29 HAAA         6.5520     0.9260     1.9720 hc         1 D8G       0.050033
     30 HAAB         6.9960    -0.6110     1.2100 hc         1 D8G       0.050033
     31 HAI          0.7940     2.6130    -0.5860 h4         1 D8G       0.047800
     32 HAK         -2.9570     0.7890    -2.1560 h1         1 D8G       0.074700
     33 HAKA        -2.8600    -0.9600    -2.0680 h1         1 D8G       0.074700
     34 HAH         -3.5540    -2.1890     0.0060 ha         1 D8G       0.125000
     35 HAF         -5.0850    -2.1950     1.9590 ha         1 D8G       0.119000
     36 HAE         -6.0700    -0.0610     2.7920 ha         1 D8G       0.116000
     37 HAG         -5.5120     2.0890     1.6520 ha         1 D8G       0.131000
@<TRIPOS>BOND
     1     1     2 2   
     2     2     3 1   
     3     2    15 1   
     4     3     4 1   
     5     3    12 2   
     6     4     5 1   
     7     4     6 1   
     8     5    24 1   
     9     5    25 1   
    10     5    26 1   
    11     6     7 1   
    12     6    11 2   
    13     7     8 2   
    14     7    27 1   
    15     8     9 1   
    16     8    10 1   
    17     9    28 1   
    18     9    29 1   
    19     9    30 1   
    20    10    11 1   
    21    11    12 1   
    22    12    13 1   
    23    13    14 2   
    24    13    31 1   
    25    14    15 1   
    26    15    16 1   
    27    16    17 1   
    28    16    32 1   
    29    16    33 1   
    30    17    18 ar  
    31    17    22 ar  
    32    18    19 ar  
    33    18    34 1   
    34    19    20 ar  
    35    19    35 1   
    36    20    21 ar  
    37    20    36 1   
    38    21    22 ar  
    39    21    37 1   
    40    22    23 1   
@<TRIPOS>SUBSTRUCTURE
     1 D8G         1 TEMP              0 ****  ****    0 ROOT
