@<TRIPOS>MOLECULE
D8G
   37    40     1     0     0
SMALL
abcg2


@<TRIPOS>ATOM
      1 OAC         -1.1260    -1.9820    -0.6450 o          1 D8G      -0.562000
      2 CAQ         -0.5660    -0.8960    -0.7500 c          1 D8G       0.570600
      3 CAU          0.8030    -0.6120    -0.4340 cc         1 D8G      -0.193600
      4 NAV          1.7480    -1.4590     0.0660 na         1 D8G       0.075000
      5 CAB          1.5960    -2.8640     0.3880 c3         1 D8G       0.063900
      6 CAS          2.9050    -0.7470     0.1870 cc         1 D8G      -0.102000
      7 CAJ          4.2290    -1.0120     0.6280 cc         1 D8G      -0.126000
      8 CAN          5.0040     0.1030     0.5370 cd         1 D8G      -0.158300
      9 CAA          6.4410     0.2430     0.9040 c3         1 D8G      -0.028800
     10 SAM          4.1370     1.4870    -0.0840 ss         1 D8G       0.200000
     11 CAT          2.6960     0.5580    -0.2300 cd         1 D8G      -0.201000
     12 CAR          1.3490     0.6560    -0.6300 cd         1 D8G      -0.146900
     13 CAI          0.5020     1.6670    -1.1460 cd         1 D8G       0.411800
     14 NAL         -0.7370     1.4420    -1.4210 nc         1 D8G      -0.436300
     15 NAW         -1.2410     0.2170    -1.2170 n          1 D8G      -0.136800
     16 CAK         -2.6550     0.0660    -1.5440 c3         1 D8G       0.171300
     17 CAP         -3.5250    -0.1340    -0.3310 ca         1 D8G      -0.151300
     18 CAH         -4.1990    -1.3300    -0.1080 ca         1 D8G      -0.051000
     19 CAF         -5.0220    -1.5000     0.9970 ca         1 D8G      -0.134000
     20 CAE         -5.1740    -0.4660     1.9100 ca         1 D8G      -0.076000
     21 CAG         -4.5120     0.7390     1.7150 ca         1 D8G      -0.161000
     22 CAO         -3.7060     0.8770     0.6010 ca         1 D8G       0.187000
     23 FAD         -3.0740     2.0470     0.4090 f          1 D8G      -0.173000
     24 HAB          1.5120    -3.4670    -0.5140 h1         1 D8G       0.061700
     25 HABA         2.4730    -3.1880     0.9420 h1         1 D8G       0.061700
     26 HABB         0.7200    -3.0220     1.0090 h1         1 D8G       0.061700
     27 HAJ          4.6010    -1.9600     0.9890 ha         1 D8G       0.138000
     28 HAA          7.0400     0.5880     0.0600 hc         1 D8G       0.050033
     29 HAAA         6.5790     0.9570     1.7170 hc         1 D8G       0.050033
     30 HAAB         6.8370    -0.7170     1.2280 hc         1 D8G       0.050033
     31 HAI          0.8580     2.6710    -1.3350 h4         1 D8G       0.047800
     32 HAK         -2.9400     0.9640    -2.0860 h1         1 D8G       0.074700
     33 HAKA        -2.7800    -0.7780    -2.2210 h1         1 D8G       0.074700
     34 HAH         -4.0740    -2.1390    -0.8160 ha         1 D8G       0.125000
     35 HAF         -5.5380    -2.4390     1.1470 ha         1 D8G       0.119000
     36 HAE         -5.8110    -0.5890     2.7760 ha         1 D8G       0.116000
     37 HAG         -4.6220     1.5600     2.4110 ha         1 D8G       0.131000
@<TRIPOS>BOND
     1     1     2 2   
     2     2     3 1   
     3     2    15 1   
     4     3     4 1   
     5     3    12 2   
     6     4     5 1   
     7     4     6 1   
     8     5    24 1   
     9     5    25 1   
    10     5    26 1   
    11     6     7 1   
    12     6    11 2   
    13     7     8 2   
    14     7    27 1   
    15     8     9 1   
    16     8    10 1   
    17     9    28 1   
    18     9    29 1   
    19     9    30 1   
    20    10    11 1   
    21    11    12 1   
    22    12    13 1   
    23    13    14 2   
    24    13    31 1   
    25    14    15 1   
    26    15    16 1   
    27    16    17 1   
    28    16    32 1   
    29    16    33 1   
    30    17    18 ar  
    31    17    22 ar  
    32    18    19 ar  
    33    18    34 1   
    34    19    20 ar  
    35    19    35 1   
    36    20    21 ar  
    37    20    36 1   
    38    21    22 ar  
    39    21    37 1   
    40    22    23 1   
@<TRIPOS>SUBSTRUCTURE
     1 D8G         1 TEMP              0 ****  ****    0 ROOT
