@<TRIPOS>MOLECULE
D8H
   46    47     1     0     0
SMALL
No Charge or Current Charge


@<TRIPOS>ATOM
      1 N02          5.1300     3.3750     0.0410 nv         1 D8H      -1.057900
      2 C02          5.1130     2.0560    -0.1560 ca         1 D8H       0.601900
      3 C03          6.2620     1.2630    -0.1700 ca         1 D8H      -0.232000
      4 C04          6.1170    -0.1170    -0.3790 ca         1 D8H       0.001700
      5 C07          7.3200    -1.0440    -0.4040 c3         1 D8H      -0.053800
      6 C05          4.8130    -0.6080    -0.5560 ca         1 D8H      -0.215000
      7 N01          3.8760     1.6120    -0.3190 nb         1 D8H      -0.754000
      8 C06          3.7250     0.2850    -0.5210 ca         1 D8H       0.397300
      9 C08          2.3010    -0.2210    -0.7000 c3         1 D8H      -0.125700
     10 C09          1.7170    -0.8150     0.6000 c3         1 D8H      -0.025100
     11 C13          0.3010    -1.3420     0.4080 ca         1 D8H      -0.085300
     12 C12          0.0610    -2.7260     0.2630 ca         1 D8H       0.285900
     13 C14         -0.7930    -0.4530     0.3680 ca         1 D8H      -0.153000
     14 C15         -2.0860    -0.9720     0.1870 ca         1 D8H       0.267000
     15 C16         -2.2210    -2.3840     0.0510 ca         1 D8H       0.263900
     16 N11         -1.1750    -3.2500     0.0870 nb         1 D8H      -0.637000
     17 N17         -3.1770    -0.0810     0.1480 nu         1 D8H      -0.948200
     18 C18         -4.5940    -0.4310    -0.0370 c3         1 D8H       0.211800
     19 C19         -5.4690     0.8340    -0.0200 c3         1 D8H      -0.095400
     20 C20         -6.9620     0.5140    -0.2100 c3         1 D8H       0.161600
     21 O21         -7.6840     1.7560    -0.1780 os         1 D8H      -0.454000
     22 C22         -9.1060     1.6230    -0.3450 c3         1 D8H       0.146900
     23 H021         5.9390     3.7660     0.5110 hn         1 D8H       0.469000
     24 H022         4.2320     3.7890     0.2620 hn         1 D8H       0.469000
     25 H03          7.2410     1.7070    -0.0240 ha         1 D8H       0.118000
     26 H071         7.5190    -1.4530     0.5940 hc         1 D8H       0.046367
     27 H072         7.1580    -1.8880    -1.0860 hc         1 D8H       0.046367
     28 H073         8.2230    -0.5190    -0.7380 hc         1 D8H       0.046367
     29 H05          4.6400    -1.6690    -0.7170 ha         1 D8H       0.122000
     30 H081         1.6500     0.5890    -1.0510 hc         1 D8H       0.058700
     31 H082         2.2820    -0.9880    -1.4830 hc         1 D8H       0.058700
     32 H091         2.3750    -1.6170     0.9570 hc         1 D8H       0.055700
     33 H092         1.7250    -0.0440     1.3810 hc         1 D8H       0.055700
     34 H12          0.8850    -3.4380     0.2860 h4         1 D8H       0.017100
     35 H14         -0.6390     0.6170     0.4760 ha         1 D8H       0.119000
     36 H16         -3.2010    -2.8370    -0.0910 h4         1 D8H       0.016100
     37 H17         -2.9520     0.9100     0.2570 hn         1 D8H       0.470000
     38 H181        -4.7280    -0.9510    -0.9950 h1         1 D8H       0.039200
     39 H182        -4.9200    -1.1070     0.7650 h1         1 D8H       0.039200
     40 H191        -5.3350     1.3570     0.9350 hc         1 D8H       0.060200
     41 H192        -5.1440     1.5120    -0.8180 hc         1 D8H       0.060200
     42 H201        -7.1100     0.0040    -1.1720 h1         1 D8H       0.021700
     43 H202        -7.3020    -0.1530     0.5940 h1         1 D8H       0.021700
     44 H221        -9.5880     2.6080    -0.3090 h1         1 D8H       0.029367
     45 H222        -9.3440     1.1600    -1.3110 h1         1 D8H       0.029367
     46 H223        -9.5350     1.0030     0.4530 h1         1 D8H       0.029367
@<TRIPOS>BOND
     1     1     2 1   
     2     1    23 1   
     3     1    24 1   
     4     2     3 ar  
     5     2     7 ar  
     6     3     4 ar  
     7     3    25 1   
     8     4     5 1   
     9     4     6 ar  
    10     5    26 1   
    11     5    27 1   
    12     5    28 1   
    13     6     8 ar  
    14     6    29 1   
    15     7     8 ar  
    16     8     9 1   
    17     9    10 1   
    18     9    30 1   
    19     9    31 1   
    20    10    11 1   
    21    10    32 1   
    22    10    33 1   
    23    11    12 ar  
    24    11    13 ar  
    25    12    16 ar  
    26    12    34 1   
    27    13    14 ar  
    28    13    35 1   
    29    14    15 ar  
    30    14    17 1   
    31    15    16 ar  
    32    15    36 1   
    33    17    18 1   
    34    17    37 1   
    35    18    19 1   
    36    18    38 1   
    37    18    39 1   
    38    19    20 1   
    39    19    40 1   
    40    19    41 1   
    41    20    21 1   
    42    20    42 1   
    43    20    43 1   
    44    21    22 1   
    45    22    44 1   
    46    22    45 1   
    47    22    46 1   
@<TRIPOS>SUBSTRUCTURE
     1 D8H         1 TEMP              0 ****  ****    0 ROOT
