@<TRIPOS>MOLECULE
D8H
   46    47     1     0     0
SMALL
bcc


@<TRIPOS>ATOM
      1 N02          5.1390     3.1670     0.6500 nv         1 D8H      -0.947500
      2 C02          5.0460     1.8840     0.1930 ca         1 D8H       0.667200
      3 C03          6.2040     1.1460    -0.1090 ca         1 D8H      -0.315300
      4 C04          6.0720    -0.1280    -0.6220 ca         1 D8H       0.001700
      5 C07          7.2720    -0.9660    -0.9410 c3         1 D8H      -0.053800
      6 C05          4.7800    -0.6270    -0.8230 ca         1 D8H      -0.298300
      7 N01          3.8240     1.3960     0.0070 nb         1 D8H      -0.754000
      8 C06          3.6960     0.1650    -0.4930 ca         1 D8H       0.462600
      9 C08          2.2900    -0.3410    -0.6450 c3         1 D8H      -0.125700
     10 C09          1.6650    -0.6940     0.7130 c3         1 D8H      -0.025100
     11 C13          0.2520    -1.1750     0.5610 ca         1 D8H      -0.150600
     12 C12         -0.0520    -2.5350     0.5800 ca         1 D8H       0.351200
     13 C14         -0.7900    -0.2880     0.3500 ca         1 D8H      -0.171000
     14 C15         -2.0940    -0.7590     0.1600 ca         1 D8H       0.063300
     15 C16         -2.2750    -2.1490     0.2110 ca         1 D8H       0.329200
     16 N11         -1.2800    -3.0010     0.4120 nb         1 D8H      -0.637000
     17 N17         -3.1200     0.1130    -0.0910 nu         1 D8H      -0.754600
     18 C18         -4.5050    -0.2900    -0.0050 c3         1 D8H       0.211800
     19 C19         -5.4140     0.8890    -0.3120 c3         1 D8H      -0.095400
     20 C20         -6.8740     0.4920    -0.2260 c3         1 D8H       0.138400
     21 O21         -7.6730     1.6100    -0.5220 os         1 D8H      -0.407600
     22 C22         -9.0460     1.3210    -0.4630 c3         1 D8H       0.123700
     23 H021         6.0060     3.4500     1.0760 hn         1 D8H       0.413800
     24 H022         4.3180     3.5450     1.0920 hn         1 D8H       0.413800
     25 H03          7.1830     1.5770     0.0610 ha         1 D8H       0.136000
     26 H071         7.3600    -1.7930    -0.2340 hc         1 D8H       0.046367
     27 H072         7.1930    -1.4050    -1.9360 hc         1 D8H       0.046367
     28 H073         8.1930    -0.3870    -0.8940 hc         1 D8H       0.046367
     29 H05          4.6280    -1.6210    -1.2270 ha         1 D8H       0.140000
     30 H081         1.6790     0.4250    -1.1300 hc         1 D8H       0.058700
     31 H082         2.2740    -1.2220    -1.2900 hc         1 D8H       0.058700
     32 H091         2.2680    -1.4660     1.1970 hc         1 D8H       0.055700
     33 H092         1.6970     0.1860     1.3590 hc         1 D8H       0.055700
     34 H12          0.7340    -3.2660     0.7430 h4         1 D8H       0.017100
     35 H14         -0.6000     0.7810     0.3270 ha         1 D8H       0.137000
     36 H16         -3.2590    -2.5840     0.0800 h4         1 D8H       0.016100
     37 H17         -2.9380     1.0660     0.1840 hn         1 D8H       0.414800
     38 H181        -4.6940    -1.0870    -0.7290 h1         1 D8H       0.039200
     39 H182        -4.7480    -0.7010     0.9860 h1         1 D8H       0.039200
     40 H191        -5.2140     1.6990     0.3960 hc         1 D8H       0.060200
     41 H192        -5.1910     1.2660    -1.3140 hc         1 D8H       0.060200
     42 H201        -7.0820    -0.3280    -0.9290 h1         1 D8H       0.021700
     43 H202        -7.1010     0.1090     0.7800 h1         1 D8H       0.021700
     44 H221        -9.5950     2.2290    -0.7110 h1         1 D8H       0.029367
     45 H222        -9.3330     0.5380    -1.1770 h1         1 D8H       0.029367
     46 H223        -9.3540     0.9910     0.5360 h1         1 D8H       0.029367
@<TRIPOS>BOND
     1     1     2 1   
     2     1    23 1   
     3     1    24 1   
     4     2     3 ar  
     5     2     7 ar  
     6     3     4 ar  
     7     3    25 1   
     8     4     5 1   
     9     4     6 ar  
    10     5    26 1   
    11     5    27 1   
    12     5    28 1   
    13     6     8 ar  
    14     6    29 1   
    15     7     8 ar  
    16     8     9 1   
    17     9    10 1   
    18     9    30 1   
    19     9    31 1   
    20    10    11 1   
    21    10    32 1   
    22    10    33 1   
    23    11    12 ar  
    24    11    13 ar  
    25    12    16 ar  
    26    12    34 1   
    27    13    14 ar  
    28    13    35 1   
    29    14    15 ar  
    30    14    17 1   
    31    15    16 ar  
    32    15    36 1   
    33    17    18 1   
    34    17    37 1   
    35    18    19 1   
    36    18    38 1   
    37    18    39 1   
    38    19    20 1   
    39    19    40 1   
    40    19    41 1   
    41    20    21 1   
    42    20    42 1   
    43    20    43 1   
    44    21    22 1   
    45    22    44 1   
    46    22    45 1   
    47    22    46 1   
@<TRIPOS>SUBSTRUCTURE
     1 D8H         1 TEMP              0 ****  ****    0 ROOT
