@<TRIPOS>MOLECULE
D8I
   30    30     1     0     0
SMALL
No Charge or Current Charge


@<TRIPOS>ATOM
      1 CAA          6.2910    -1.6050     0.4200 c3         1 D8I       0.153900
      2 OAM          4.9520    -1.5450    -0.1030 os         1 D8I      -0.347100
      3 CAO          4.1790    -0.4050    -0.0160 ca         1 D8I       0.125100
      4 CAH          2.8830    -0.4480    -0.5570 ca         1 D8I      -0.146000
      5 CAG          4.6430     0.7830     0.5890 ca         1 D8I      -0.207000
      6 CAE          3.8090     1.9120     0.6480 ca         1 D8I      -0.087000
      7 CAF          2.5140     1.8610     0.1040 ca         1 D8I      -0.116000
      8 CAN          2.0430     0.6820    -0.5030 ca         1 D8I      -0.039300
      9 CAJ          0.6390     0.6300    -1.0960 c3         1 D8I       0.199100
     10 NAL         -0.3620     0.3270    -0.0570 n7         1 D8I      -0.863400
     11 CAI         -1.7440     0.2140    -0.5380 c3         1 D8I       0.194800
     12 CAK         -2.6280    -0.1330     0.6580 c3         1 D8I      -0.359400
     13 SAP         -4.3590    -0.2830     0.1860 s6         1 D8I       1.323600
     14 OAD         -4.6980     1.0420    -0.3530 o          1 D8I      -0.697867
     15 OAC         -4.3630    -1.3670    -0.8080 o          1 D8I      -0.697867
     16 OAB         -5.0310    -0.6150     1.4500 o          1 D8I      -0.697867
     17 H1           6.7230    -2.5990     0.2460 h1         1 D8I       0.034033
     18 H2           6.9350    -0.8640    -0.0710 h1         1 D8I       0.034033
     19 H3           6.2970    -1.4160     1.5010 h1         1 D8I       0.034033
     20 H4           2.5300    -1.3650    -1.0220 ha         1 D8I       0.122000
     21 H5           5.6400     0.8490     1.0170 ha         1 D8I       0.105000
     22 H6           4.1650     2.8280     1.1150 ha         1 D8I       0.104000
     23 H7           1.8730     2.7390     0.1560 ha         1 D8I       0.137000
     24 H8           0.4170     1.5950    -1.5720 h1         1 D8I       0.034200
     25 H9           0.6130    -0.1350    -1.8860 h1         1 D8I       0.034200
     26 H10         -0.1050    -0.5670     0.3740 hn         1 D8I       0.403000
     27 H12         -2.0750     1.1620    -0.9860 h1         1 D8I       0.041200
     28 H13         -1.8250    -0.5730    -1.3020 h1         1 D8I       0.041200
     29 H14         -2.3390    -1.0940     1.0940 h1         1 D8I       0.070700
     30 H15         -2.5790     0.6520     1.4190 h1         1 D8I       0.070700
@<TRIPOS>BOND
     1     1     2 1   
     2     1    17 1   
     3     1    18 1   
     4     1    19 1   
     5     2     3 1   
     6     3     4 ar  
     7     3     5 ar  
     8     4     8 ar  
     9     4    20 1   
    10     5     6 ar  
    11     5    21 1   
    12     6     7 ar  
    13     6    22 1   
    14     7     8 ar  
    15     7    23 1   
    16     8     9 1   
    17     9    10 1   
    18     9    24 1   
    19     9    25 1   
    20    10    11 1   
    21    10    26 1   
    22    11    12 1   
    23    11    27 1   
    24    11    28 1   
    25    12    13 1   
    26    12    29 1   
    27    12    30 1   
    28    13    14 1   
    29    13    15 1   
    30    13    16 1   
@<TRIPOS>SUBSTRUCTURE
     1 D8I         1 TEMP              0 ****  ****    0 ROOT
