@<TRIPOS>MOLECULE
D8I
   30    30     1     0     0
SMALL
abcg2


@<TRIPOS>ATOM
      1 CAA          6.5500    -1.2070     0.0780 c3         1 D8I       0.153900
      2 OAM          5.2430    -1.3260    -0.4460 os         1 D8I      -0.347100
      3 CAO          4.3310    -0.3900    -0.1160 ca         1 D8I       0.125100
      4 CAH          3.0480    -0.5730    -0.6420 ca         1 D8I      -0.146000
      5 CAG          4.5910     0.7110     0.6940 ca         1 D8I      -0.207000
      6 CAE          3.5630     1.6110     0.9640 ca         1 D8I      -0.087000
      7 CAF          2.2950     1.4300     0.4450 ca         1 D8I      -0.116000
      8 CAN          2.0320     0.3280    -0.3730 ca         1 D8I      -0.039300
      9 CAJ          0.6600     0.1320    -0.9610 c3         1 D8I       0.199100
     10 NAL         -0.3640     0.1850     0.0640 n7         1 D8I      -0.863400
     11 CAI         -1.7050     0.0850    -0.4840 c3         1 D8I       0.194800
     12 CAK         -2.7310     0.1670     0.6320 c3         1 D8I      -0.359400
     13 SAP         -4.4280     0.1460     0.0320 s6         1 D8I       1.323600
     14 OAD         -4.5450     1.3050    -0.8760 o          1 D8I      -0.697867
     15 OAC         -4.6010    -1.1460    -0.6610 o          1 D8I      -0.697867
     16 OAB         -5.2670     0.2730     1.2410 o          1 D8I      -0.697867
     17 H1           7.1140    -2.0560    -0.3010 h1         1 D8I       0.034033
     18 H2           7.0400    -0.2860    -0.2470 h1         1 D8I       0.034033
     19 H3           6.5570    -1.2420     1.1710 h1         1 D8I       0.034033
     20 H4           2.8550    -1.4370    -1.2690 ha         1 D8I       0.122000
     21 H5           5.5710     0.8840     1.1180 ha         1 D8I       0.105000
     22 H6           3.7720     2.4680     1.5930 ha         1 D8I       0.104000
     23 H7           1.5050     2.1350     0.6700 ha         1 D8I       0.137000
     24 H8           0.4610     0.9390    -1.6740 h1         1 D8I       0.034200
     25 H9           0.6400    -0.8000    -1.5450 h1         1 D8I       0.034200
     26 H10         -0.2140    -0.5770     0.7150 hn         1 D8I       0.403000
     27 H12         -1.8510     0.9200    -1.1740 h1         1 D8I       0.041200
     28 H13         -1.8600    -0.8360    -1.0640 h1         1 D8I       0.041200
     29 H14         -2.6230    -0.6720     1.3240 h1         1 D8I       0.070700
     30 H15         -2.6000     1.0900     1.2010 h1         1 D8I       0.070700
@<TRIPOS>BOND
     1     1     2 1   
     2     1    17 1   
     3     1    18 1   
     4     1    19 1   
     5     2     3 1   
     6     3     4 ar  
     7     3     5 ar  
     8     4     8 ar  
     9     4    20 1   
    10     5     6 ar  
    11     5    21 1   
    12     6     7 ar  
    13     6    22 1   
    14     7     8 ar  
    15     7    23 1   
    16     8     9 1   
    17     9    10 1   
    18     9    24 1   
    19     9    25 1   
    20    10    11 1   
    21    10    26 1   
    22    11    12 1   
    23    11    27 1   
    24    11    28 1   
    25    12    13 1   
    26    12    29 1   
    27    12    30 1   
    28    13    14 1   
    29    13    15 1   
    30    13    16 1   
@<TRIPOS>SUBSTRUCTURE
     1 D8I         1 TEMP              0 ****  ****    0 ROOT
