@<TRIPOS>MOLECULE
D8J
   33    34     1     0     0
SMALL
bcc


@<TRIPOS>ATOM
      1 C4          -5.3890     0.2600     5.8520 ca         1 D8J      -0.061500
      2 C5          -6.7760     0.3180     5.7200 ca         1 D8J      -0.170600
      3 C6          -7.4730     1.4370     5.0220 c          1 D8J       0.685700
      4 N1          -9.9830     0.2120     0.5110 n8         1 D8J      -0.877800
      5 C7          -7.2870     3.2160     3.3530 c3         1 D8J       0.101000
      6 C8          -8.0410     2.8930     2.0770 c5         1 D8J       0.082100
      7 C9          -9.1380     1.8370     2.1790 c5         1 D8J       0.123100
      8 C10         -9.3270     1.4880     0.7130 c5         1 D8J       0.125500
      9 C11         -7.8690     1.4680     0.2570 c5         1 D8J       0.125400
     10 F           -5.0060    -2.7920     7.7180 f          1 D8J      -0.137900
     11 C2          -5.5840    -1.7740     7.0680 ca         1 D8J       0.159900
     12 C1          -6.9620    -1.7460     6.9620 ca         1 D8J      -0.180500
     13 C3          -4.7830    -0.7850     6.5300 ca         1 D8J      -0.180500
     14 C           -7.5520    -0.6880     6.2920 ca         1 D8J      -0.061500
     15 O           -8.6230     1.7460     5.3250 o          1 D8J      -0.629100
     16 N           -6.7790     2.0660     4.0620 ns         1 D8J      -0.560900
     17 O1          -7.1600     2.3800     1.0930 os         1 D8J      -0.414600
     18 O2         -10.3140     2.2730     2.7980 oh         1 D8J      -0.592800
     19 H1          -4.7580     1.0430     5.4510 ha         1 D8J       0.146000
     20 H3         -10.0370     0.0130    -0.4810 hn         1 D8J       0.347800
     21 H5          -6.4450     3.8690     3.1190 h1         1 D8J       0.067200
     22 H6          -7.9440     3.7810     4.0140 h1         1 D8J       0.067200
     23 H7          -8.4930     3.8370     1.7340 h1         1 D8J       0.058700
     24 H8          -8.7360     0.9380     2.6700 h1         1 D8J       0.060700
     25 H9          -9.8480     2.3260     0.2250 h1         1 D8J       0.039700
     26 H10         -7.4620     0.4580     0.3800 h1         1 D8J       0.053700
     27 H11         -7.7530     1.7570    -0.7910 h1         1 D8J       0.053700
     28 H12         -7.5630    -2.5350     7.3960 ha         1 D8J       0.155500
     29 H13         -3.7080    -0.8250     6.6420 ha         1 D8J       0.155500
     30 H14         -8.6300    -0.6520     6.2070 ha         1 D8J       0.146000
     31 H15         -5.8860     1.7000     3.7770 hn         1 D8J       0.326500
     32 H16        -10.1470     2.2680     3.7490 ho         1 D8J       0.437000
     33 H2         -10.9440     0.2830     0.8200 hn         1 D8J       0.347800
@<TRIPOS>BOND
     1     1     2 ar  
     2     1    13 ar  
     3     1    19 1   
     4     2     3 1   
     5     2    14 ar  
     6     3    15 2   
     7     3    16 1   
     8     4     8 1   
     9     4    20 1   
    10     4    33 1   
    11     5     6 1   
    12     5    16 1   
    13     5    21 1   
    14     5    22 1   
    15     6     7 1   
    16     6    17 1   
    17     6    23 1   
    18     7     8 1   
    19     7    18 1   
    20     7    24 1   
    21     8     9 1   
    22     8    25 1   
    23     9    17 1   
    24     9    26 1   
    25     9    27 1   
    26    10    11 1   
    27    11    12 ar  
    28    11    13 ar  
    29    12    14 ar  
    30    12    28 1   
    31    13    29 1   
    32    14    30 1   
    33    16    31 1   
    34    18    32 1   
@<TRIPOS>SUBSTRUCTURE
     1 D8J         1 TEMP              0 ****  ****    0 ROOT
