@<TRIPOS>MOLECULE
D8J
   33    34     1     0     0
SMALL
No Charge or Current Charge


@<TRIPOS>ATOM
      1 C4          -5.4740     0.0230     5.6560 ca         1 D8J      -0.043500
      2 C5          -6.8560     0.2910     5.8270 ca         1 D8J      -0.170600
      3 C6          -7.5680     1.3830     5.0590 c          1 D8J       0.618700
      4 N1          -9.9230     0.2350     0.1420 n8         1 D8J      -0.988200
      5 C7          -7.3320     3.2400     3.3660 c3         1 D8J       0.101000
      6 C8          -8.0570     2.8490     2.0480 c5         1 D8J       0.105300
      7 C9          -8.9860     1.6040     2.0910 c5         1 D8J       0.146300
      8 C10         -9.2800     1.5060     0.5620 c5         1 D8J       0.125500
      9 C11         -7.8390     1.7640    -0.0140 c5         1 D8J       0.148600
     10 F           -4.9930    -2.7540     7.9980 f          1 D8J      -0.173000
     11 C2          -5.5950    -1.7700     7.2970 ca         1 D8J       0.195000
     12 C1          -6.9610    -1.5180     7.4780 ca         1 D8J      -0.162500
     13 C3          -4.8520    -1.0040     6.3890 ca         1 D8J      -0.162500
     14 C           -7.5890    -0.4940     6.7480 ca         1 D8J      -0.043500
     15 O           -8.7660     1.6020     5.1950 o          1 D8J      -0.629100
     16 N           -6.8140     2.1250     4.1760 ns         1 D8J      -0.493900
     17 O1          -7.1100     2.4820     1.0220 os         1 D8J      -0.461000
     18 O2         -10.1520     1.7850     2.9080 oh         1 D8J      -0.715000
     19 H1          -4.8660     0.5970     4.9600 ha         1 D8J       0.128000
     20 H3         -10.3110     0.3460    -0.8030 hn         1 D8J       0.403000
     21 H5          -6.4990     3.9120     3.1210 h1         1 D8J       0.067200
     22 H6          -8.0330     3.8160     3.9840 h1         1 D8J       0.067200
     23 H7          -8.6090     3.7330     1.6970 h1         1 D8J       0.058700
     24 H8          -8.4250     0.7180     2.4230 h1         1 D8J       0.060700
     25 H9          -9.9560     2.3210     0.2630 h1         1 D8J       0.039700
     26 H10         -7.3070     0.8260    -0.2240 h1         1 D8J       0.053700
     27 H11         -7.8670     2.3630    -0.9330 h1         1 D8J       0.053700
     28 H12         -7.5320    -2.1160     8.1830 ha         1 D8J       0.137500
     29 H13         -3.7920    -1.2060     6.2550 ha         1 D8J       0.137500
     30 H14         -8.6520    -0.3120     6.9020 ha         1 D8J       0.128000
     31 H15         -5.8340     1.8880     4.0930 hn         1 D8J       0.326500
     32 H16         -9.8100     1.7450     3.8480 ho         1 D8J       0.536000
     33 H2         -10.7580     0.0920     0.7250 hn         1 D8J       0.403000
@<TRIPOS>BOND
     1     1     2 ar  
     2     1    13 ar  
     3     1    19 1   
     4     2     3 1   
     5     2    14 ar  
     6     3    15 2   
     7     3    16 1   
     8     4     8 1   
     9     4    20 1   
    10     4    33 1   
    11     5     6 1   
    12     5    16 1   
    13     5    21 1   
    14     5    22 1   
    15     6     7 1   
    16     6    17 1   
    17     6    23 1   
    18     7     8 1   
    19     7    18 1   
    20     7    24 1   
    21     8     9 1   
    22     8    25 1   
    23     9    17 1   
    24     9    26 1   
    25     9    27 1   
    26    10    11 1   
    27    11    12 ar  
    28    11    13 ar  
    29    12    14 ar  
    30    12    28 1   
    31    13    29 1   
    32    14    30 1   
    33    16    31 1   
    34    18    32 1   
@<TRIPOS>SUBSTRUCTURE
     1 D8J         1 TEMP              0 ****  ****    0 ROOT
