@<TRIPOS>MOLECULE
D8K
   74    77     1     0     0
SMALL
No Charge or Current Charge


@<TRIPOS>ATOM
      1 C2           2.4600     0.8480     1.3070 c3         1 D8K       0.035700
      2 C3           3.6780     1.6300     0.7450 c3         1 D8K      -0.035100
      3 C12         -0.9620     1.7660     2.8530 c3         1 D8K       0.112700
      4 C13         -1.0780     1.8680     4.4050 c3         1 D8K       0.152600
      5 C14         -2.1770     1.0130     2.2450 c3         1 D8K      -0.084400
      6 C15         -3.4080     1.9120     1.9680 c3         1 D8K      -0.148400
      7 C16          4.5740     0.7660    -0.1370 ca         1 D8K      -0.096300
      8 C17          4.5830     0.9450    -1.5360 ca         1 D8K      -0.083000
      9 C18          5.3990     0.1370    -2.3470 ca         1 D8K      -0.151500
     10 C19          6.2070    -0.8490    -1.7630 ca         1 D8K       0.169000
     11 C20          6.2060    -1.0340    -0.3720 ca         1 D8K      -0.151500
     12 C21          5.3900    -0.2270     0.4410 ca         1 D8K      -0.083000
     13 C23         -3.3290     2.5160     0.5520 c          1 D8K       0.596100
     14 C26          0.1540    -2.5000    -0.4860 c          1 D8K       0.524600
     15 C27         -0.8450    -3.4510     0.1010 cc         1 D8K       0.223500
     16 N1           1.7200     0.1050     0.2530 ns         1 D8K      -0.508900
     17 C4           1.0680     0.6870    -0.8190 c          1 D8K       0.570100
     18 O5           1.0400     1.9010    -0.9650 o          1 D8K      -0.577100
     19 C6           0.3210    -0.2950    -1.7660 c3         1 D8K       0.013700
     20 N7          -0.4100    -1.3560    -1.0190 ns         1 D8K      -0.484900
     21 C8          -0.6140     0.4230    -2.7720 c3         1 D8K       0.102000
     22 C9           1.4680     1.7290     2.1260 c          1 D8K       0.607100
     23 N10          0.2660     1.1020     2.4020 ns         1 D8K      -0.502900
     24 O11          1.6840     2.8990     2.4150 o          1 D8K      -0.549100
     25 N22         -1.7840     1.0710    -2.1570 ns         1 D8K      -0.511900
     26 O24         -2.7410     3.5710     0.3590 o          1 D8K      -0.603100
     27 F25          6.9910    -1.6250    -2.5430 f          1 D8K      -0.181000
     28 O28          1.3670    -2.6730    -0.4910 o          1 D8K      -0.600100
     29 N29         -2.1630    -3.2640     0.1290 nd         1 D8K      -0.367300
     30 O30         -2.6670    -4.4410     0.7940 os         1 D8K      -0.062700
     31 C31         -1.6050    -5.2450     1.1140 cd         1 D8K       0.177300
     32 C32         -0.4540    -4.6650     0.7010 cc         1 D8K      -0.198000
     33 C33         -1.8490    -6.5470     1.8210 c3         1 D8K      -0.137400
     34 C34         -2.6380     1.9180    -2.8320 c          1 D8K       0.589100
     35 O35         -2.4370     2.2670    -3.9870 o          1 D8K      -0.607100
     36 C36         -3.8600     2.3230    -1.9360 c5         1 D8K       0.025700
     37 C37         -5.1400     1.6510    -2.5180 c5         1 D8K      -0.076400
     38 C38         -5.1030     0.2570    -1.8410 c5         1 D8K      -0.094400
     39 C39         -4.7960     0.6380    -0.3720 c5         1 D8K       0.097000
     40 N40         -3.8830     1.7960    -0.5330 n          1 D8K      -0.415800
     41 O41         -0.0430     2.6810     4.9730 oh         1 D8K      -0.633000
     42 H1           2.8410     0.0970     2.0110 h1         1 D8K       0.061700
     43 H2           3.3270     2.5060     0.1870 hc         1 D8K       0.080200
     44 H3           4.2600     2.0290     1.5850 hc         1 D8K       0.080200
     45 H4          -0.9560     2.7870     2.4470 h1         1 D8K       0.111700
     46 H5          -2.0580     2.2920     4.6610 h1         1 D8K       0.012700
     47 H6          -1.0360     0.8570     4.8330 h1         1 D8K       0.012700
     48 H7          -1.8860     0.5240     1.3060 hc         1 D8K       0.046700
     49 H8          -2.4660     0.2000     2.9230 hc         1 D8K       0.046700
     50 H9          -4.2950     1.2780     2.0660 hc         1 D8K       0.066700
     51 H10         -3.4550     2.7160     2.7110 hc         1 D8K       0.066700
     52 H11          3.9550     1.7060    -1.9950 ha         1 D8K       0.117500
     53 H12          5.4040     0.2740    -3.4260 ha         1 D8K       0.131000
     54 H13          6.8350    -1.8000     0.0730 ha         1 D8K       0.131000
     55 H14          5.3910    -0.3750     1.5190 ha         1 D8K       0.117500
     56 H15          1.7490    -0.9130     0.2500 hn         1 D8K       0.342500
     57 H16          1.1100    -0.7870    -2.3500 h1         1 D8K       0.092700
     58 H17         -1.4250    -1.3210    -0.9860 hn         1 D8K       0.350500
     59 H18         -0.0370     1.1800    -3.3220 h1         1 D8K       0.074200
     60 H19         -0.9740    -0.3090    -3.5070 h1         1 D8K       0.074200
     61 H20          0.2020     0.1350     2.1120 hn         1 D8K       0.299500
     62 H21         -2.0190     0.8850    -1.1900 hn         1 D8K       0.360500
     63 H22          0.5580    -5.0390     0.8010 ha         1 D8K       0.173000
     64 H23         -2.3340    -6.3800     2.7900 hc         1 D8K       0.067033
     65 H24         -2.4970    -7.1990     1.2250 hc         1 D8K       0.067033
     66 H25         -0.9080    -7.0800     2.0020 hc         1 D8K       0.067033
     67 H26         -3.9350     3.4180    -1.9650 h1         1 D8K       0.095700
     68 H27         -6.0400     2.2060    -2.2240 hc         1 D8K       0.066200
     69 H28         -5.1410     1.5960    -3.6130 hc         1 D8K       0.066200
     70 H29         -6.0490    -0.2880    -1.9400 hc         1 D8K       0.064200
     71 H30         -4.3160    -0.3790    -2.2640 hc         1 D8K       0.064200
     72 H31         -5.7100     0.9380     0.1590 h1         1 D8K       0.051200
     73 H32         -4.3290    -0.1920     0.1740 h1         1 D8K       0.051200
     74 H33         -0.1720     2.6720     5.9470 ho         1 D8K       0.438000
@<TRIPOS>BOND
     1     1     2 1   
     2     1    16 1   
     3     1    22 1   
     4     1    42 1   
     5     2     7 1   
     6     2    43 1   
     7     2    44 1   
     8     3     4 1   
     9     3     5 1   
    10     3    23 1   
    11     3    45 1   
    12     4    41 1   
    13     4    46 1   
    14     4    47 1   
    15     5     6 1   
    16     5    48 1   
    17     5    49 1   
    18     6    13 1   
    19     6    50 1   
    20     6    51 1   
    21     7     8 ar  
    22     7    12 ar  
    23     8     9 ar  
    24     8    52 1   
    25     9    10 ar  
    26     9    53 1   
    27    10    11 ar  
    28    10    27 1   
    29    11    12 ar  
    30    11    54 1   
    31    12    55 1   
    32    13    26 2   
    33    13    40 1   
    34    14    15 1   
    35    14    20 1   
    36    14    28 2   
    37    15    29 2   
    38    15    32 1   
    39    16    17 1   
    40    16    56 1   
    41    17    18 2   
    42    17    19 1   
    43    19    20 1   
    44    19    21 1   
    45    19    57 1   
    46    20    58 1   
    47    21    25 1   
    48    21    59 1   
    49    21    60 1   
    50    22    23 1   
    51    22    24 2   
    52    23    61 1   
    53    25    34 1   
    54    25    62 1   
    55    29    30 1   
    56    30    31 1   
    57    31    32 2   
    58    31    33 1   
    59    32    63 1   
    60    33    64 1   
    61    33    65 1   
    62    33    66 1   
    63    34    35 2   
    64    34    36 1   
    65    36    37 1   
    66    36    40 1   
    67    36    67 1   
    68    37    38 1   
    69    37    68 1   
    70    37    69 1   
    71    38    39 1   
    72    38    70 1   
    73    38    71 1   
    74    39    40 1   
    75    39    72 1   
    76    39    73 1   
    77    41    74 1   
@<TRIPOS>SUBSTRUCTURE
     1 D8K         1 TEMP              0 ****  ****    0 ROOT
