@<TRIPOS>MOLECULE
D8K
   74    77     1     0     0
SMALL
abcg2


@<TRIPOS>ATOM
      1 C2           2.6060     0.9340     1.1310 c3         1 D8K       0.035700
      2 C3           3.7590     1.8340     0.6800 c3         1 D8K      -0.035100
      3 C12         -0.7760     1.4250     2.7780 c3         1 D8K       0.112700
      4 C13         -0.8590     1.4500     4.2960 c3         1 D8K       0.152600
      5 C14         -1.9040     0.5360     2.2330 c3         1 D8K      -0.084400
      6 C15         -3.2040     1.2940     1.9150 c3         1 D8K      -0.148400
      7 C16          4.7900     1.0440    -0.0750 ca         1 D8K      -0.096300
      8 C17          4.7720     0.9870    -1.4660 ca         1 D8K      -0.083000
      9 C18          5.6860     0.2140    -2.1700 ca         1 D8K      -0.151500
     10 C19          6.6240    -0.5080    -1.4600 ca         1 D8K       0.169000
     11 C20          6.6800    -0.4760    -0.0800 ca         1 D8K      -0.151500
     12 C21          5.7570     0.3040     0.6020 ca         1 D8K      -0.083000
     13 C23         -3.1310     1.8520     0.5110 c          1 D8K       0.596100
     14 C26         -0.0530    -2.2420    -0.6670 c          1 D8K       0.524600
     15 C27         -1.1410    -3.0260    -0.0260 cc         1 D8K       0.223500
     16 N1           1.9880     0.2050     0.0410 ns         1 D8K      -0.508900
     17 C4           1.1460     0.8020    -0.8170 c          1 D8K       0.570100
     18 O5           0.9070     1.9980    -0.7810 o          1 D8K      -0.577100
     19 C6           0.4510    -0.1220    -1.8250 c3         1 D8K       0.013700
     20 N7          -0.4260    -1.0430    -1.1340 ns         1 D8K      -0.484900
     21 C8          -0.3580     0.6820    -2.8430 c3         1 D8K       0.102000
     22 C9           1.5310     1.7070     1.9170 c          1 D8K       0.607100
     23 N10          0.5030     0.9330     2.3050 ns         1 D8K      -0.502900
     24 O11          1.6310     2.8940     2.1630 o          1 D8K      -0.549100
     25 N22         -1.5300     1.2820    -2.2510 ns         1 D8K      -0.511900
     26 O24         -2.3760     2.7870     0.2490 o          1 D8K      -0.603100
     27 F25          7.5110    -1.2620    -2.1310 f          1 D8K      -0.181000
     28 O28          1.0810    -2.6890    -0.7320 o          1 D8K      -0.600100
     29 N29         -2.3430    -2.5370     0.0930 nd         1 D8K      -0.367300
     30 O30         -3.0700    -3.4800     0.7240 os         1 D8K      -0.062700
     31 C31         -2.3070    -4.5510     0.9900 cd         1 D8K       0.177300
     32 C32         -1.0510    -4.3190     0.5330 cc         1 D8K      -0.198000
     33 C33         -2.9420    -5.6930     1.6820 c3         1 D8K      -0.137400
     34 C34         -2.7890     1.0270    -2.6600 c          1 D8K       0.589100
     35 O35         -3.0580     0.2920    -3.5960 o          1 D8K      -0.607100
     36 C36         -3.8750     1.7260    -1.8270 c5         1 D8K       0.025700
     37 C37         -5.2810     1.3740    -2.2870 c5         1 D8K      -0.076400
     38 C38         -5.5590     0.0530    -1.5770 c5         1 D8K      -0.094400
     39 C39         -4.8940     0.2270    -0.2140 c5         1 D8K       0.097000
     40 N40         -3.8550     1.2390    -0.4450 n          1 D8K      -0.415800
     41 O41          0.0790     2.3540     4.8190 oh         1 D8K      -0.633000
     42 H1           3.0140     0.1710     1.8000 h1         1 D8K       0.061700
     43 H2           3.3790     2.6500     0.0660 hc         1 D8K       0.080200
     44 H3           4.2080     2.2840     1.5670 hc         1 D8K       0.080200
     45 H4          -0.8970     2.4400     2.3930 h1         1 D8K       0.111700
     46 H5          -1.8870     1.7210     4.5780 h1         1 D8K       0.012700
     47 H6          -0.6890     0.4280     4.6650 h1         1 D8K       0.012700
     48 H7          -1.5630     0.0210     1.3330 hc         1 D8K       0.046700
     49 H8          -2.1220    -0.2560     2.9530 hc         1 D8K       0.046700
     50 H9          -4.0500     0.6250     2.0520 hc         1 D8K       0.066700
     51 H10         -3.3410     2.1220     2.6120 hc         1 D8K       0.066700
     52 H11          4.0370     1.5600    -2.0170 ha         1 D8K       0.117500
     53 H12          5.6670     0.1770    -3.2520 ha         1 D8K       0.131000
     54 H13          7.4310    -1.0450     0.4540 ha         1 D8K       0.131000
     55 H14          5.7960     0.3350     1.6850 ha         1 D8K       0.117500
     56 H15          2.2110    -0.7720    -0.0760 hn         1 D8K       0.342500
     57 H16          1.2060    -0.6970    -2.3690 h1         1 D8K       0.092700
     58 H17         -1.3880    -0.7590    -1.0100 hn         1 D8K       0.350500
     59 H18          0.2810     1.4430    -3.2900 h1         1 D8K       0.074200
     60 H19         -0.6740     0.0160    -3.6430 h1         1 D8K       0.074200
     61 H20          0.5520    -0.0480     2.0750 hn         1 D8K       0.299500
     62 H21         -1.3900     1.9880    -1.5400 hn         1 D8K       0.360500
     63 H22         -0.1960    -4.9690     0.5870 ha         1 D8K       0.173000
     64 H23         -3.2960    -5.4070     2.6720 hc         1 D8K       0.067033
     65 H24         -3.7960    -6.0690     1.1170 hc         1 D8K       0.067033
     66 H25         -2.2230    -6.5000     1.7950 hc         1 D8K       0.067033
     67 H26         -3.6930     2.8030    -1.8450 h1         1 D8K       0.095700
     68 H27         -5.9670     2.1470    -1.9350 hc         1 D8K       0.066200
     69 H28         -5.3740     1.3130    -3.3690 hc         1 D8K       0.066200
     70 H29         -6.6210    -0.1630    -1.4770 hc         1 D8K       0.064200
     71 H30         -5.1050    -0.7730    -2.1250 hc         1 D8K       0.064200
     72 H31         -5.6140     0.5880     0.5230 h1         1 D8K       0.051200
     73 H32         -4.4640    -0.7040     0.1550 h1         1 D8K       0.051200
     74 H33          0.0300     2.3080     5.7780 ho         1 D8K       0.438000
@<TRIPOS>BOND
     1     1     2 1   
     2     1    16 1   
     3     1    22 1   
     4     1    42 1   
     5     2     7 1   
     6     2    43 1   
     7     2    44 1   
     8     3     4 1   
     9     3     5 1   
    10     3    23 1   
    11     3    45 1   
    12     4    41 1   
    13     4    46 1   
    14     4    47 1   
    15     5     6 1   
    16     5    48 1   
    17     5    49 1   
    18     6    13 1   
    19     6    50 1   
    20     6    51 1   
    21     7     8 ar  
    22     7    12 ar  
    23     8     9 ar  
    24     8    52 1   
    25     9    10 ar  
    26     9    53 1   
    27    10    11 ar  
    28    10    27 1   
    29    11    12 ar  
    30    11    54 1   
    31    12    55 1   
    32    13    26 2   
    33    13    40 1   
    34    14    15 1   
    35    14    20 1   
    36    14    28 2   
    37    15    29 2   
    38    15    32 1   
    39    16    17 1   
    40    16    56 1   
    41    17    18 2   
    42    17    19 1   
    43    19    20 1   
    44    19    21 1   
    45    19    57 1   
    46    20    58 1   
    47    21    25 1   
    48    21    59 1   
    49    21    60 1   
    50    22    23 1   
    51    22    24 2   
    52    23    61 1   
    53    25    34 1   
    54    25    62 1   
    55    29    30 1   
    56    30    31 1   
    57    31    32 2   
    58    31    33 1   
    59    32    63 1   
    60    33    64 1   
    61    33    65 1   
    62    33    66 1   
    63    34    35 2   
    64    34    36 1   
    65    36    37 1   
    66    36    40 1   
    67    36    67 1   
    68    37    38 1   
    69    37    68 1   
    70    37    69 1   
    71    38    39 1   
    72    38    70 1   
    73    38    71 1   
    74    39    40 1   
    75    39    72 1   
    76    39    73 1   
    77    41    74 1   
@<TRIPOS>SUBSTRUCTURE
     1 D8K         1 TEMP              0 ****  ****    0 ROOT
