@<TRIPOS>MOLECULE
D8L
   28    29     1     0     0
SMALL
No Charge or Current Charge


@<TRIPOS>ATOM
      1 C4          55.8270    25.1260    49.4060 ca         1 D8L      -0.052200
      2 C5          55.0730    26.2650    49.4000 ca         1 D8L      -0.093800
      3 C6          53.7540    26.2880    49.8760 ca         1 D8L      -0.040000
      4 C11         58.0640    30.7440    49.5450 c3         1 D8L       0.059900
      5 C7          57.1510    26.7630    48.5110 cc         1 D8L      -0.172100
      6 C8          55.9100    27.3010    48.8360 cd         1 D8L      -0.093400
      7 C9          55.4940    28.7350    48.6170 c3         1 D8L       0.000800
      8 C10         55.4480    29.5740    49.9230 c3         1 D8L      -0.034700
      9 C12         54.7740    30.9690    49.7220 c          1 D8L       0.723000
     10 N1          57.0750    25.4030    48.8800 na         1 D8L      -0.237700
     11 C3          55.3230    23.9130    49.8920 ca         1 D8L      -0.147000
     12 C1          53.2180    25.0790    50.3720 ca         1 D8L      -0.164000
     13 C2          53.9980    23.8970    50.3810 ca         1 D8L      -0.102000
     14 O1          54.1050    31.4180    50.6430 o          1 D8L      -0.713000
     15 O2          54.8880    31.5380    48.6440 o          1 D8L      -0.713000
     16 S1          57.1400    29.6720    50.7410 ss         1 D8L      -0.493000
     17 H4          53.1640    27.2010    49.8630 ha         1 D8L       0.132000
     18 H10         59.0860    30.9040    49.9110 h1         1 D8L       0.045033
     19 H11         58.1110    30.2620    48.5610 h1         1 D8L       0.045033
     20 H12         57.5660    31.7180    49.4490 h1         1 D8L       0.045033
     21 H6          58.0350    27.2180    48.0730 h4         1 D8L       0.207000
     22 H7          56.1630    29.2140    47.8920 hc         1 D8L       0.056200
     23 H8          54.4980    28.7490    48.1580 hc         1 D8L       0.056200
     24 H9          54.7970    29.0340    50.6220 h1         1 D8L       0.065700
     25 H5          57.8220    24.7230    48.7760 hn         1 D8L       0.334000
     26 H3          55.9310    23.0110    49.8930 ha         1 D8L       0.096000
     27 H1          52.1980    25.0570    50.7500 ha         1 D8L       0.100000
     28 H2          53.5750    22.9720    50.7650 ha         1 D8L       0.092000
@<TRIPOS>BOND
     1     1     2 ar  
     2     1    10 1   
     3     1    11 ar  
     4     2     3 ar  
     5     2     6 1   
     6     3    12 ar  
     7     3    17 1   
     8     4    16 1   
     9     4    18 1   
    10     4    19 1   
    11     4    20 1   
    12     5     6 2   
    13     5    10 1   
    14     5    21 1   
    15     6     7 1   
    16     7     8 1   
    17     7    22 1   
    18     7    23 1   
    19     8     9 1   
    20     8    16 1   
    21     8    24 1   
    22     9    14 1   
    23     9    15 1   
    24    10    25 1   
    25    11    13 ar  
    26    11    26 1   
    27    12    13 ar  
    28    12    27 1   
    29    13    28 1   
@<TRIPOS>SUBSTRUCTURE
     1 D8L         1 TEMP              0 ****  ****    0 ROOT
