@<TRIPOS>MOLECULE
D8L
   28    29     1     0     0
SMALL
abcg2


@<TRIPOS>ATOM
      1 C4          55.8260    25.0830    49.4450 ca         1 D8L      -0.052200
      2 C5          55.0730    26.2770    49.3730 ca         1 D8L      -0.093800
      3 C6          53.7330    26.2600    49.7750 ca         1 D8L      -0.040000
      4 C11         57.9940    30.8760    49.5050 c3         1 D8L       0.059900
      5 C7          57.1420    26.6910    48.6400 cc         1 D8L      -0.172100
      6 C8          55.9370    27.2970    48.8520 cd         1 D8L      -0.093400
      7 C9          55.5710    28.7250    48.6320 c3         1 D8L       0.000800
      8 C10         55.5450    29.5650    49.9160 c3         1 D8L      -0.034700
      9 C12         54.7880    30.9250    49.7730 c          1 D8L       0.723000
     10 N1          57.0800    25.3690    48.9920 na         1 D8L      -0.237700
     11 C3          55.2760    23.8870    49.9050 ca         1 D8L      -0.147000
     12 C1          53.1840    25.0770    50.2300 ca         1 D8L      -0.164000
     13 C2          53.9500    23.9010    50.2950 ca         1 D8L      -0.102000
     14 O1          55.0560    31.8150    50.5970 o          1 D8L      -0.713000
     15 O2          53.9380    30.9740    48.8650 o          1 D8L      -0.713000
     16 S1          57.2000    29.7270    50.6480 ss         1 D8L      -0.493000
     17 H4          53.1310    27.1610    49.7280 ha         1 D8L       0.132000
     18 H10         59.0300    30.9850    49.8210 h1         1 D8L       0.045033
     19 H11         57.9910    30.5010    48.4830 h1         1 D8L       0.045033
     20 H12         57.5130    31.8520    49.5350 h1         1 D8L       0.045033
     21 H6          58.0580    27.1120    48.2560 h4         1 D8L       0.207000
     22 H7          56.2510    29.1800    47.9080 hc         1 D8L       0.056200
     23 H8          54.5780    28.7770    48.1820 hc         1 D8L       0.056200
     24 H9          54.9980    28.9970    50.6790 h1         1 D8L       0.065700
     25 H5          57.8390    24.7140    48.9160 hn         1 D8L       0.334000
     26 H3          55.8650    22.9790    49.9530 ha         1 D8L       0.096000
     27 H1          52.1470    25.0500    50.5410 ha         1 D8L       0.100000
     28 H2          53.4940    22.9890    50.6560 ha         1 D8L       0.092000
@<TRIPOS>BOND
     1     1     2 ar  
     2     1    10 1   
     3     1    11 ar  
     4     2     3 ar  
     5     2     6 1   
     6     3    12 ar  
     7     3    17 1   
     8     4    16 1   
     9     4    18 1   
    10     4    19 1   
    11     4    20 1   
    12     5     6 2   
    13     5    10 1   
    14     5    21 1   
    15     6     7 1   
    16     7     8 1   
    17     7    22 1   
    18     7    23 1   
    19     8     9 1   
    20     8    16 1   
    21     8    24 1   
    22     9    14 1   
    23     9    15 1   
    24    10    25 1   
    25    11    13 ar  
    26    11    26 1   
    27    12    13 ar  
    28    12    27 1   
    29    13    28 1   
@<TRIPOS>SUBSTRUCTURE
     1 D8L         1 TEMP              0 ****  ****    0 ROOT
