@<TRIPOS>MOLECULE
D8M
   39    40     1     0     0
SMALL
abcg2


@<TRIPOS>ATOM
      1 O3           4.4590     7.5330    10.2220 oh         1 D8M      -0.682000
      2 C4          -2.7610     3.2110    10.8510 ca         1 D8M      -0.135000
      3 C5          -2.1680     5.4250     9.7900 c3         1 D8M       0.059700
      4 C6           0.2040     5.8250    10.1860 c          1 D8M       0.613100
      5 N1          -0.8700     5.9040     9.3830 ns         1 D8M      -0.490900
      6 C7           1.5050     6.3010     9.5820 c3         1 D8M      -0.171400
      7 C8           2.0620     7.4870    10.3570 c5         1 D8M       0.171300
      8 C9           3.2990     8.1060     9.6950 c5         1 D8M       0.151300
      9 C10          3.1040     9.6030     9.9540 c5         1 D8M       0.104300
     10 C11          1.5870     9.7160     9.8460 c5         1 D8M       0.126300
     11 C12          1.0840     9.8760     8.4180 c3         1 D8M       0.132800
     12 O            0.1360     5.4190    11.3380 o          1 D8M      -0.597100
     13 C3          -2.2710     3.9190     9.7610 ca         1 D8M       0.321300
     14 N           -1.8840     3.3210     8.6380 nb         1 D8M      -0.679000
     15 C2          -1.9740     2.0000     8.5630 ca         1 D8M       0.336900
     16 C1          -2.4550     1.2060     9.5950 ca         1 D8M      -0.162000
     17 C           -2.8580     1.8310    10.7640 ca         1 D8M      -0.072000
     18 O1           1.0900     8.5160    10.4290 os         1 D8M      -0.441000
     19 O2           3.5690     9.8860    11.2490 oh         1 D8M      -0.685000
     20 H1           5.2060     7.8000     9.6780 ho         1 D8M       0.507000
     21 H3          -2.4070     5.8000    10.7850 h1         1 D8M       0.064700
     22 H4          -2.9030     5.8480     9.1050 h1         1 D8M       0.064700
     23 H5          -0.7440     6.1620     8.4190 hn         1 D8M       0.314500
     24 H6           2.2260     5.4810     9.6220 hc         1 D8M       0.062700
     25 H7           1.3840     6.5700     8.5290 hc         1 D8M       0.062700
     26 H8           2.3160     7.1650    11.3740 h1         1 D8M       0.107700
     27 H12          3.2450     7.9530     8.6080 h1         1 D8M       0.031700
     28 H13          3.6110    10.2180     9.1980 h1         1 D8M       0.043700
     29 H14          1.2050    10.5580    10.4340 h1         1 D8M       0.089700
     30 H15          1.5280     9.1050     7.7700 h1         1 D8M       0.026200
     31 H16          1.4420    10.8370     8.0400 h1         1 D8M       0.026200
     32 H17         -1.6490     1.5460     7.6330 h4         1 D8M       0.015100
     33 H18         -2.5090     0.1320     9.4790 ha         1 D8M       0.123000
     34 H19         -3.2350     1.2540    11.5990 ha         1 D8M       0.120000
     35 H20          3.4170    10.8200    11.4260 ho         1 D8M       0.504000
     36 N2          -0.3690     9.8830     8.4000 n8         1 D8M      -0.990200
     37 H2          -3.0600     3.7330    11.7500 ha         1 D8M       0.130000
     38 H9          -0.6930    10.0110     7.4500 hn         1 D8M       0.399500
     39 H10         -0.7110     8.9760     8.6900 hn         1 D8M       0.399500
@<TRIPOS>BOND
     1     1     8 1   
     2     1    20 1   
     3     2    13 ar  
     4     2    17 ar  
     5     2    37 1   
     6     3     5 1   
     7     3    13 1   
     8     3    21 1   
     9     3    22 1   
    10     4     5 1   
    11     4     6 1   
    12     4    12 2   
    13     5    23 1   
    14     6     7 1   
    15     6    24 1   
    16     6    25 1   
    17     7     8 1   
    18     7    18 1   
    19     7    26 1   
    20     8     9 1   
    21     8    27 1   
    22     9    10 1   
    23     9    19 1   
    24     9    28 1   
    25    10    11 1   
    26    10    18 1   
    27    10    29 1   
    28    11    30 1   
    29    11    31 1   
    30    11    36 1   
    31    13    14 ar  
    32    14    15 ar  
    33    15    16 ar  
    34    15    32 1   
    35    16    17 ar  
    36    16    33 1   
    37    17    34 1   
    38    19    35 1   
    39    36    38 1   
    40    36    39 1   
@<TRIPOS>SUBSTRUCTURE
     1 D8M         1 TEMP              0 ****  ****    0 ROOT
