@<TRIPOS>MOLECULE
D8M
   39    40     1     0     0
SMALL
No Charge or Current Charge


@<TRIPOS>ATOM
      1 O3           4.4350     7.5300    10.1810 oh         1 D8M      -0.682000
      2 C4          -2.2030     2.9210    11.0020 ca         1 D8M      -0.135000
      3 C5          -2.2320     5.2390     9.9260 c3         1 D8M       0.059700
      4 C6           0.2250     5.6930    10.2820 c          1 D8M       0.613100
      5 N1          -0.9030     5.7030     9.4930 ns         1 D8M      -0.490900
      6 C7           1.5030     6.1730     9.6030 c3         1 D8M      -0.171400
      7 C8           1.9290     7.5450    10.1600 c5         1 D8M       0.171300
      8 C9           3.2680     8.1070     9.5900 c5         1 D8M       0.151300
      9 C10          3.1140     9.5930    10.0200 c5         1 D8M       0.104300
     10 C11          1.6100     9.8300     9.6380 c5         1 D8M       0.126300
     11 C12          1.4130    10.3130     8.1690 c3         1 D8M       0.132800
     12 O            0.2090     5.2860    11.4350 o          1 D8M      -0.597100
     13 C3          -2.3970     3.7210     9.8580 ca         1 D8M       0.321300
     14 N           -2.7310     3.1960     8.6510 nb         1 D8M      -0.679000
     15 C2          -2.8800     1.8540     8.5600 ca         1 D8M       0.336900
     16 C1          -2.7040     0.9900     9.6540 ca         1 D8M      -0.162000
     17 C           -2.3580     1.5290    10.9040 ca         1 D8M      -0.072000
     18 O1           0.9450     8.5420     9.8040 os         1 D8M      -0.441000
     19 O2           3.3740     9.7490    11.4300 oh         1 D8M      -0.685000
     20 H1           4.5720     8.0720    10.9970 ho         1 D8M       0.507000
     21 H3          -2.4130     5.5800    10.9540 h1         1 D8M       0.064700
     22 H4          -2.9900     5.7120     9.2890 h1         1 D8M       0.064700
     23 H5          -0.7930     6.0440     8.5450 hn         1 D8M       0.314500
     24 H6           2.2970     5.4470     9.8110 hc         1 D8M       0.062700
     25 H7           1.3540     6.2530     8.5200 hc         1 D8M       0.062700
     26 H8           1.9810     7.4850    11.2570 h1         1 D8M       0.107700
     27 H12          3.3010     8.0070     8.4960 h1         1 D8M       0.031700
     28 H13          3.7810    10.2450     9.4380 h1         1 D8M       0.043700
     29 H14          1.1440    10.5660    10.3080 h1         1 D8M       0.089700
     30 H15          1.8220     9.5600     7.4820 h1         1 D8M       0.026200
     31 H16          1.9590    11.2540     8.0130 h1         1 D8M       0.026200
     32 H17         -3.1480     1.4610     7.5800 h4         1 D8M       0.015100
     33 H18         -2.8350    -0.0810     9.5280 ha         1 D8M       0.123000
     34 H19         -2.2140     0.8870    11.7710 ha         1 D8M       0.120000
     35 H20          3.2930    10.7090    11.6440 ho         1 D8M       0.504000
     36 N2          -0.0130    10.5310     7.8300 n8         1 D8M      -0.990200
     37 H2          -1.9320     3.3790    11.9500 ha         1 D8M       0.130000
     38 H9          -0.1040    10.6530     6.8140 hn         1 D8M       0.399500
     39 H10         -0.5210     9.6580     8.0200 hn         1 D8M       0.399500
@<TRIPOS>BOND
     1     1     8 1   
     2     1    20 1   
     3     2    13 ar  
     4     2    17 ar  
     5     2    37 1   
     6     3     5 1   
     7     3    13 1   
     8     3    21 1   
     9     3    22 1   
    10     4     5 1   
    11     4     6 1   
    12     4    12 2   
    13     5    23 1   
    14     6     7 1   
    15     6    24 1   
    16     6    25 1   
    17     7     8 1   
    18     7    18 1   
    19     7    26 1   
    20     8     9 1   
    21     8    27 1   
    22     9    10 1   
    23     9    19 1   
    24     9    28 1   
    25    10    11 1   
    26    10    18 1   
    27    10    29 1   
    28    11    30 1   
    29    11    31 1   
    30    11    36 1   
    31    13    14 ar  
    32    14    15 ar  
    33    15    16 ar  
    34    15    32 1   
    35    16    17 ar  
    36    16    33 1   
    37    17    34 1   
    38    19    35 1   
    39    36    38 1   
    40    36    39 1   
@<TRIPOS>SUBSTRUCTURE
     1 D8M         1 TEMP              0 ****  ****    0 ROOT
