@<TRIPOS>MOLECULE
D8N
   27    28     1     0     0
SMALL
No Charge or Current Charge


@<TRIPOS>ATOM
      1 C01         -3.3040     0.4920    -1.1640 c5         1 D8N      -0.172700
      2 C02         -2.6510     0.8300     0.2030 c5         1 D8N       0.177600
      3 C05         -4.3400    -0.4950    -0.7300 c2         1 D8N       0.297200
      4 C06         -1.1670     0.4680     0.1170 ca         1 D8N      -0.127300
      5 C07         -0.1960     1.4870     0.0890 ca         1 D8N      -0.060500
      6 C08          1.1730     1.1760     0.0080 ca         1 D8N      -0.155000
      7 C09          1.5990    -0.1680    -0.0460 ca         1 D8N      -0.009000
      8 C10          0.6290    -1.1860    -0.0170 ca         1 D8N      -0.155000
      9 C11         -0.7390    -0.8740     0.0640 ca         1 D8N      -0.060500
     10 C13          4.1480     0.1630    -0.1810 c          1 D8N       0.609100
     11 C15          5.4010    -0.7030    -0.2660 c3         1 D8N      -0.182100
     12 N04         -4.3460    -0.7690     0.5210 n2         1 D8N      -0.257700
     13 N12          2.9640    -0.5620    -0.1290 ns         1 D8N      -0.147000
     14 O03         -3.3330    -0.0180     1.1700 os         1 D8N      -0.283000
     15 O14          4.2200     1.3860    -0.1630 o          1 D8N      -0.580100
     16 H012        -3.7630     1.3720    -1.6280 hc         1 D8N       0.075700
     17 H011        -2.6120     0.0510    -1.8900 hc         1 D8N       0.075700
     18 H021        -2.8030     1.8820     0.4820 h1         1 D8N       0.071700
     19 H071        -0.5030     2.5310     0.1280 ha         1 D8N       0.116000
     20 H081         1.8830     1.9970    -0.0120 ha         1 D8N       0.130000
     21 H101         0.9340    -2.2290    -0.0570 ha         1 D8N       0.130000
     22 H111        -1.4690    -1.6810     0.0850 ha         1 D8N       0.116000
     23 H152         5.4070    -1.4050     0.5760 hc         1 D8N       0.064367
     24 H151         5.3140    -1.3740    -1.1280 hc         1 D8N       0.064367
     25 H153         6.3230    -0.1110    -0.3060 hc         1 D8N       0.064367
     26 H121         3.0960    -1.5640    -0.1550 hn         1 D8N       0.150000
     27 H1          -5.0430    -0.9640    -1.4140 h4         1 D8N       0.047800
@<TRIPOS>BOND
     1     1     2 1   
     2     1     3 1   
     3     1    16 1   
     4     1    17 1   
     5     2     4 1   
     6     2    14 1   
     7     2    18 1   
     8     3    12 2   
     9     3    27 1   
    10     4     5 ar  
    11     4     9 ar  
    12     5     6 ar  
    13     5    19 1   
    14     6     7 ar  
    15     6    20 1   
    16     7     8 ar  
    17     7    13 1   
    18     8     9 ar  
    19     8    21 1   
    20     9    22 1   
    21    10    11 1   
    22    10    13 1   
    23    10    15 2   
    24    11    23 1   
    25    11    24 1   
    26    11    25 1   
    27    12    14 1   
    28    13    26 1   
@<TRIPOS>SUBSTRUCTURE
     1 D8N         1 TEMP              0 ****  ****    0 ROOT
