@<TRIPOS>MOLECULE
D8N
   27    28     1     0     0
SMALL
abcg2


@<TRIPOS>ATOM
      1 C01         -3.3770     0.4690    -1.1820 c5         1 D8N      -0.172700
      2 C02         -2.5740     0.8110     0.0820 c5         1 D8N       0.177600
      3 C05         -4.3990    -0.4510    -0.6100 c2         1 D8N       0.297200
      4 C06         -1.1180     0.4590     0.0270 ca         1 D8N      -0.127300
      5 C07         -0.1440     1.4360     0.1600 ca         1 D8N      -0.060500
      6 C08          1.2120     1.1390     0.0990 ca         1 D8N      -0.155000
      7 C09          1.6190    -0.1810    -0.0920 ca         1 D8N      -0.009000
      8 C10          0.6400    -1.1740    -0.2180 ca         1 D8N      -0.155000
      9 C11         -0.7030    -0.8590    -0.1580 ca         1 D8N      -0.060500
     10 C13          4.0920     0.1260    -0.0800 c          1 D8N       0.609100
     11 C15          5.3550    -0.6930    -0.1720 c3         1 D8N      -0.182100
     12 N04         -4.2800    -0.6610     0.6320 n2         1 D8N      -0.257700
     13 N12          2.9480    -0.6010    -0.1690 ns         1 D8N      -0.147000
     14 O03         -3.2140     0.0420     1.1320 os         1 D8N      -0.283000
     15 O14          4.1180     1.3330     0.0840 o          1 D8N      -0.580100
     16 H012        -3.8330     1.3470    -1.6390 hc         1 D8N       0.075700
     17 H011        -2.7840    -0.0250    -1.9550 hc         1 D8N       0.075700
     18 H021        -2.6870     1.8680     0.3340 h1         1 D8N       0.071700
     19 H071        -0.4390     2.4670     0.3160 ha         1 D8N       0.116000
     20 H081         1.9320     1.9330     0.2050 ha         1 D8N       0.130000
     21 H101         0.9370    -2.2060    -0.3660 ha         1 D8N       0.130000
     22 H111        -1.4280    -1.6570    -0.2620 ha         1 D8N       0.116000
     23 H152         5.8000    -0.7720     0.8210 hc         1 D8N       0.064367
     24 H151         5.1990    -1.7000    -0.5530 hc         1 D8N       0.064367
     25 H153         6.0730    -0.1840    -0.8120 hc         1 D8N       0.064367
     26 H121         3.0660    -1.5940    -0.3030 hn         1 D8N       0.150000
     27 H1          -5.1900    -0.9400    -1.1610 h4         1 D8N       0.047800
@<TRIPOS>BOND
     1     1     2 1   
     2     1     3 1   
     3     1    16 1   
     4     1    17 1   
     5     2     4 1   
     6     2    14 1   
     7     2    18 1   
     8     3    12 2   
     9     3    27 1   
    10     4     5 ar  
    11     4     9 ar  
    12     5     6 ar  
    13     5    19 1   
    14     6     7 ar  
    15     6    20 1   
    16     7     8 ar  
    17     7    13 1   
    18     8     9 ar  
    19     8    21 1   
    20     9    22 1   
    21    10    11 1   
    22    10    13 1   
    23    10    15 2   
    24    11    23 1   
    25    11    24 1   
    26    11    25 1   
    27    12    14 1   
    28    13    26 1   
@<TRIPOS>SUBSTRUCTURE
     1 D8N         1 TEMP              0 ****  ****    0 ROOT
