@<TRIPOS>MOLECULE
D8P
   35    36     1     0     0
SMALL
bcc


@<TRIPOS>ATOM
      1 C4          -4.2210     1.3810    11.1420 ca         1 D8P      -0.188600
      2 C5          -3.7320     0.4340    10.2270 ca         1 D8P       0.661200
      3 C6          -5.3420     0.1100     8.3970 c3         1 D8P       0.235500
      4 N1          -4.5780    -0.4300     9.5220 nh         1 D8P      -0.745300
      5 C7          -6.1000     1.3890     8.7250 c3         1 D8P      -0.077400
      6 C8          -7.1740     1.2520     9.7900 c3         1 D8P       0.169800
      7 N2          -6.6670     0.7380    11.0450 n7         1 D8P      -0.786200
      8 C9          -5.6460     1.5670    11.6330 c3         1 D8P       0.227100
      9 C10         -4.4490     0.3270     7.1700 c3         1 D8P       0.097400
     10 C11         -4.0670    -1.7680     9.3080 c3         1 D8P       0.197100
     11 O           -5.2670     0.6100     6.0550 oh         1 D8P      -0.604800
     12 N           -2.4240     0.2800    10.0110 nb         1 D8P      -0.740000
     13 C1          -1.5290     1.0460    10.6180 ca         1 D8P       0.442600
     14 C           -0.0810     0.7630    10.3550 c3         1 D8P      -0.144400
     15 C3          -3.2740     2.2140    11.7280 ca         1 D8P      -0.099000
     16 C2          -1.9240     2.0670    11.4740 ca         1 D8P      -0.265300
     17 H1          -6.0810    -0.6600     8.1420 h1         1 D8P       0.071700
     18 H2          -5.3950     2.1870     8.9820 hc         1 D8P       0.052200
     19 H3          -6.5890     1.7290     7.8110 hc         1 D8P       0.052200
     20 H4          -7.6520     2.2400     9.9070 h1         1 D8P       0.026700
     21 H5          -7.9520     0.5710     9.4320 h1         1 D8P       0.026700
     22 H6          -7.4340     0.6700    11.7010 hn         1 D8P       0.356800
     23 H8          -5.8840     2.6430    11.5570 h1         1 D8P       0.028700
     24 H9          -5.6320     1.3520    12.7050 h1         1 D8P       0.028700
     25 H10         -3.8430    -0.5680     6.9870 h1         1 D8P       0.027700
     26 H11         -3.7490     1.1490     7.3760 h1         1 D8P       0.027700
     27 H12         -3.7380    -2.1950    10.2560 h1         1 D8P       0.033367
     28 H13         -4.8800    -2.3930     8.9330 h1         1 D8P       0.033367
     29 H14         -3.2320    -1.8480     8.6060 h1         1 D8P       0.033367
     30 H15         -4.6970     0.7530     5.2950 ho         1 D8P       0.404000
     31 H16          0.0610     0.3350     9.3640 hc         1 D8P       0.049033
     32 H17          0.5240     1.6660    10.4350 hc         1 D8P       0.049033
     33 H18          0.3100     0.0460    11.0800 hc         1 D8P       0.049033
     34 H19         -3.6050     2.9800    12.4230 ha         1 D8P       0.130000
     35 H20         -1.1950     2.7160    11.9410 ha         1 D8P       0.139000
@<TRIPOS>BOND
     1     1     2 ar  
     2     1     8 1   
     3     1    15 ar  
     4     2     4 1   
     5     2    12 ar  
     6     3     4 1   
     7     3     5 1   
     8     3     9 1   
     9     3    17 1   
    10     4    10 1   
    11     5     6 1   
    12     5    18 1   
    13     5    19 1   
    14     6     7 1   
    15     6    20 1   
    16     6    21 1   
    17     7     8 1   
    18     7    22 1   
    19     8    23 1   
    20     8    24 1   
    21     9    11 1   
    22     9    25 1   
    23     9    26 1   
    24    10    27 1   
    25    10    28 1   
    26    10    29 1   
    27    11    30 1   
    28    12    13 ar  
    29    13    14 1   
    30    13    16 ar  
    31    14    31 1   
    32    14    32 1   
    33    14    33 1   
    34    15    16 ar  
    35    15    34 1   
    36    16    35 1   
@<TRIPOS>SUBSTRUCTURE
     1 D8P         1 TEMP              0 ****  ****    0 ROOT
