@<TRIPOS>MOLECULE
D8P
   35    36     1     0     0
SMALL
No Charge or Current Charge


@<TRIPOS>ATOM
      1 C4          -4.1850     1.1430    11.3030 ca         1 D8P      -0.123300
      2 C5          -3.6310     0.4010    10.2220 ca         1 D8P       0.595900
      3 C6          -5.1680     0.1180     8.2700 c3         1 D8P       0.235500
      4 N1          -4.3520    -0.4470     9.3780 nh         1 D8P      -0.745300
      5 C7          -5.7920     1.5120     8.6000 c3         1 D8P      -0.077400
      6 C8          -6.9310     1.5040     9.6500 c3         1 D8P       0.169800
      7 N2          -6.6760     0.6430    10.8250 n7         1 D8P      -0.841400
      8 C9          -5.6380     1.0620    11.7910 c3         1 D8P       0.227100
      9 C10         -4.3450     0.1570     6.9440 c3         1 D8P       0.120600
     10 C11         -4.6090    -1.8390     9.7850 c3         1 D8P       0.197100
     11 O           -5.1770     0.4190     5.7970 oh         1 D8P      -0.667000
     12 N           -2.3390     0.4780     9.8500 nb         1 D8P      -0.740000
     13 C1          -1.5250     1.2970    10.5430 ca         1 D8P       0.377300
     14 C           -0.0790     1.3440    10.0880 c3         1 D8P      -0.144400
     15 C3          -3.3160     1.9900    12.0180 ca         1 D8P      -0.081000
     16 C2          -1.9710     2.0660    11.6290 ca         1 D8P      -0.182000
     17 H1          -6.0140    -0.5590     8.0860 h1         1 D8P       0.071700
     18 H2          -5.0090     2.2150     8.9070 hc         1 D8P       0.052200
     19 H3          -6.2150     1.9400     7.6850 hc         1 D8P       0.052200
     20 H4          -7.1410     2.5350     9.9640 h1         1 D8P       0.026700
     21 H5          -7.8330     1.1360     9.1440 h1         1 D8P       0.026700
     22 H6          -7.5580     0.5690    11.3470 hn         1 D8P       0.412000
     23 H8          -5.9150     2.0430    12.2010 h1         1 D8P       0.028700
     24 H9          -5.6510     0.3630    12.6380 h1         1 D8P       0.028700
     25 H10         -3.8420    -0.8110     6.8170 h1         1 D8P       0.027700
     26 H11         -3.5620     0.9230     7.0310 h1         1 D8P       0.027700
     27 H12         -3.9340    -2.1340    10.6000 h1         1 D8P       0.033367
     28 H13         -5.6440    -1.9570    10.1320 h1         1 D8P       0.033367
     29 H14         -4.4380    -2.5210     8.9400 h1         1 D8P       0.033367
     30 H15         -4.5900     0.4100     5.0070 ho         1 D8P       0.443000
     31 H16         -0.0040     1.3560     8.9950 hc         1 D8P       0.049033
     32 H17          0.4280     2.2410    10.4630 hc         1 D8P       0.049033
     33 H18          0.4720     0.4710    10.4550 hc         1 D8P       0.049033
     34 H19         -3.6740     2.5740    12.8630 ha         1 D8P       0.112000
     35 H20         -1.2800     2.7110    12.1640 ha         1 D8P       0.121000
@<TRIPOS>BOND
     1     1     2 ar  
     2     1     8 1   
     3     1    15 ar  
     4     2     4 1   
     5     2    12 ar  
     6     3     4 1   
     7     3     5 1   
     8     3     9 1   
     9     3    17 1   
    10     4    10 1   
    11     5     6 1   
    12     5    18 1   
    13     5    19 1   
    14     6     7 1   
    15     6    20 1   
    16     6    21 1   
    17     7     8 1   
    18     7    22 1   
    19     8    23 1   
    20     8    24 1   
    21     9    11 1   
    22     9    25 1   
    23     9    26 1   
    24    10    27 1   
    25    10    28 1   
    26    10    29 1   
    27    11    30 1   
    28    12    13 ar  
    29    13    14 1   
    30    13    16 ar  
    31    14    31 1   
    32    14    32 1   
    33    14    33 1   
    34    15    16 ar  
    35    15    34 1   
    36    16    35 1   
@<TRIPOS>SUBSTRUCTURE
     1 D8P         1 TEMP              0 ****  ****    0 ROOT
