@<TRIPOS>MOLECULE
D8Q
   27    27     1     0     0
SMALL
bcc


@<TRIPOS>ATOM
      1 C01         -3.8200     1.4850    -0.0810 c3         1 D8Q       0.059300
      2 C03         -1.4810     0.9280    -0.0240 cc         1 D8Q       0.086600
      3 C04         -0.4030     0.0940     0.0180 cd         1 D8Q      -0.288200
      4 C05         -0.6800    -1.2980     0.0680 cd         1 D8Q      -0.017000
      5 C06         -1.9540    -1.7540     0.0750 cc         1 D8Q      -0.282200
      6 C07         -3.0920    -0.8690     0.0470 c          1 D8Q       0.701700
      7 C09          0.9430     0.7270     0.0420 c          1 D8Q       0.705300
      8 C12          3.3620     0.3920     0.0120 c3         1 D8Q       0.104000
      9 C13          4.3470    -0.7600    -0.0950 c3         1 D8Q       0.133800
     10 N02         -2.7540     0.4920    -0.0190 n          1 D8Q      -0.337000
     11 N11          2.0040    -0.1020    -0.0330 ns         1 D8Q      -0.578900
     12 N14          5.7010    -0.2500     0.0140 n8         1 D8Q      -0.881800
     13 O08         -4.2530    -1.2330     0.0810 o          1 D8Q      -0.615500
     14 O10          1.0740     1.9350     0.1340 o          1 D8Q      -0.615100
     15 H1          -4.7790     0.9910     0.0190 h1         1 D8Q       0.062033
     16 H2          -3.7050     2.2050     0.7260 h1         1 D8Q       0.062033
     17 H3          -3.7890     2.0090    -1.0350 h1         1 D8Q       0.062033
     18 H4          -1.3460     2.0010    -0.0600 h4         1 D8Q       0.175000
     19 H5           0.1160    -2.0310     0.1170 ha         1 D8Q       0.128000
     20 H6          -2.1630    -2.8130     0.1220 ha         1 D8Q       0.160000
     21 H7           3.5240     0.9320     0.9500 h1         1 D8Q       0.060200
     22 H8           3.5410     1.1010    -0.7990 h1         1 D8Q       0.060200
     23 H9           4.1010    -1.5230     0.6570 h1         1 D8Q       0.028700
     24 H10          4.2380    -1.2370    -1.0720 h1         1 D8Q       0.028700
     25 H11          1.8690    -1.0870    -0.1750 hn         1 D8Q       0.311500
     26 H12          5.9020    -0.0300     0.9810 hn         1 D8Q       0.342300
     27 H13          6.3560    -0.9770    -0.2390 hn         1 D8Q       0.342300
@<TRIPOS>BOND
     1     1    10 1   
     2     1    15 1   
     3     1    16 1   
     4     1    17 1   
     5     2     3 2   
     6     2    10 1   
     7     2    18 1   
     8     3     4 1   
     9     3     7 1   
    10     4     5 2   
    11     4    19 1   
    12     5     6 1   
    13     5    20 1   
    14     6    10 1   
    15     6    13 2   
    16     7    11 1   
    17     7    14 2   
    18     8     9 1   
    19     8    11 1   
    20     8    21 1   
    21     8    22 1   
    22     9    12 1   
    23     9    23 1   
    24     9    24 1   
    25    11    25 1   
    26    12    26 1   
    27    12    27 1   
@<TRIPOS>SUBSTRUCTURE
     1 D8Q         1 TEMP              0 ****  ****    0 ROOT
