@<TRIPOS>MOLECULE
D8Q
   27    27     1     0     0
SMALL
No Charge or Current Charge


@<TRIPOS>ATOM
      1 C01         -3.9640     1.4470     0.0740 c3         1 D8Q       0.059300
      2 C03         -1.5040     0.9980     0.0450 cc         1 D8Q       0.036600
      3 C04         -0.3880     0.1770    -0.0250 cd         1 D8Q      -0.288200
      4 C05         -0.6090    -1.2480    -0.1560 cd         1 D8Q      -0.067000
      5 C06         -1.9050    -1.7140    -0.2050 cc         1 D8Q      -0.332200
      6 C07         -3.0920    -0.8580    -0.1320 c          1 D8Q       0.559200
      7 C09          0.9480     0.8350     0.0420 c          1 D8Q       0.638300
      8 C12          3.4180     0.3870     0.0120 c3         1 D8Q       0.104000
      9 C13          4.3910    -0.8190    -0.0030 c3         1 D8Q       0.133800
     10 N02         -2.8150     0.5150    -0.0050 n          1 D8Q      -0.270000
     11 N11          2.0130    -0.0300    -0.0330 ns         1 D8Q      -0.511900
     12 N14          5.8130    -0.4090     0.0390 n8         1 D8Q      -0.992200
     13 O08         -4.2280    -1.3090    -0.1790 o          1 D8Q      -0.540000
     14 O10          1.1040     2.0430     0.1530 o          1 D8Q      -0.615100
     15 H1          -4.5830     1.1980     0.9460 h1         1 D8Q       0.062033
     16 H2          -3.6230     2.4860     0.1710 h1         1 D8Q       0.062033
     17 H3          -4.5740     1.3610    -0.8340 h1         1 D8Q       0.062033
     18 H4          -1.4650     2.0800     0.1440 h4         1 D8Q       0.225000
     19 H5           0.2130    -1.9580    -0.2170 ha         1 D8Q       0.178000
     20 H6          -2.1180    -2.7730    -0.3020 ha         1 D8Q       0.210000
     21 H7           3.5820     0.9770     0.9230 h1         1 D8Q       0.060200
     22 H8           3.6220     1.0300    -0.8540 h1         1 D8Q       0.060200
     23 H9           4.1870    -1.4640     0.8630 h1         1 D8Q       0.028700
     24 H10          4.2260    -1.4050    -0.9170 h1         1 D8Q       0.028700
     25 H11          1.7990    -1.0130    -0.1250 hn         1 D8Q       0.311500
     26 H12          6.0080     0.0450     0.9410 hn         1 D8Q       0.397500
     27 H13          6.4040    -1.2500     0.0640 hn         1 D8Q       0.397500
@<TRIPOS>BOND
     1     1    10 1   
     2     1    15 1   
     3     1    16 1   
     4     1    17 1   
     5     2     3 2   
     6     2    10 1   
     7     2    18 1   
     8     3     4 1   
     9     3     7 1   
    10     4     5 2   
    11     4    19 1   
    12     5     6 1   
    13     5    20 1   
    14     6    10 1   
    15     6    13 2   
    16     7    11 1   
    17     7    14 2   
    18     8     9 1   
    19     8    11 1   
    20     8    21 1   
    21     8    22 1   
    22     9    12 1   
    23     9    23 1   
    24     9    24 1   
    25    11    25 1   
    26    12    26 1   
    27    12    27 1   
@<TRIPOS>SUBSTRUCTURE
     1 D8Q         1 TEMP              0 ****  ****    0 ROOT
