@<TRIPOS>MOLECULE
D8R
   32    31     1     0     0
SMALL
No Charge or Current Charge


@<TRIPOS>ATOM
      1 N           37.6280    45.4560    24.9910 n8         1 D8R      -1.000200
      2 CA          38.1950    46.2610    26.1360 c3         1 D8R       0.012500
      3 CB          38.8590    47.5690    25.6240 c3         1 D8R      -0.049400
      4 CG          40.0950    47.3500    24.7160 c3         1 D8R      -0.070400
      5 CD          40.7670    48.6710    24.2800 c3         1 D8R      -0.100400
      6 CE          41.9980    48.4490    23.3790 c3         1 D8R       0.098000
      7 NZ          42.6400    49.7100    22.9990 ns         1 D8R      -0.490900
      8 C           37.1910    46.5860    27.3200 c          1 D8R       0.693000
      9 O3          36.0950    47.0550    27.0430 o          1 D8R      -0.734500
     10 C1          42.1960    50.5500    21.9960 c          1 D8R       0.561100
     11 C2          43.0170    51.8670    21.8080 c3         1 D8R       0.091300
     12 C3          43.9210    51.7960    20.5580 c3         1 D8R      -0.121100
     13 O1          41.2030    50.2940    21.3240 o          1 D8R      -0.613100
     14 O2          42.1600    53.0260    21.6900 oh         1 D8R      -0.652000
     15 OXT         37.5040    46.2490    28.4540 o          1 D8R      -0.734500
     16 H1          37.2460    44.5760    25.3590 hn         1 D8R       0.381000
     17 H2          36.7940    45.9420    24.6400 hn         1 D8R       0.381000
     18 H4          38.9940    45.6490    26.5780 h1         1 D8R       0.033700
     19 H5          39.1730    48.1590    26.4940 hc         1 D8R       0.038700
     20 H6          38.1150    48.1740    25.0910 hc         1 D8R       0.038700
     21 H7          39.7980    46.7910    23.8200 hc         1 D8R       0.036200
     22 H8          40.8290    46.7330    25.2500 hc         1 D8R       0.036200
     23 H9          41.0730    49.2320    25.1720 hc         1 D8R       0.043700
     24 H10         40.0340    49.2890    23.7470 hc         1 D8R       0.043700
     25 H11         41.7000    47.9090    22.4700 h1         1 D8R       0.051200
     26 H12         42.7340    47.8320    23.9110 h1         1 D8R       0.051200
     27 H13         43.4630    50.0030    23.5120 hn         1 D8R       0.307500
     28 H14         43.6650    51.9770    22.6880 h1         1 D8R       0.069700
     29 H15         44.6090    50.9460    20.6320 hc         1 D8R       0.043033
     30 H16         43.3230    51.6740    19.6470 hc         1 D8R       0.043033
     31 H17         44.5190    52.7100    20.4600 hc         1 D8R       0.043033
     32 H18         41.4050    52.7600    21.1140 ho         1 D8R       0.468000
@<TRIPOS>BOND
     1     1     2 1   
     2     1    16 1   
     3     1    17 1   
     4     2     3 1   
     5     2     8 1   
     6     2    18 1   
     7     3     4 1   
     8     3    19 1   
     9     3    20 1   
    10     4     5 1   
    11     4    21 1   
    12     4    22 1   
    13     5     6 1   
    14     5    23 1   
    15     5    24 1   
    16     6     7 1   
    17     6    25 1   
    18     6    26 1   
    19     7    10 1   
    20     7    27 1   
    21     8     9 1   
    22     8    15 1   
    23    10    11 1   
    24    10    13 2   
    25    11    12 1   
    26    11    14 1   
    27    11    28 1   
    28    12    29 1   
    29    12    30 1   
    30    12    31 1   
    31    14    32 1   
@<TRIPOS>SUBSTRUCTURE
     1 D8R         1 TEMP              0 ****  ****    0 ROOT
