@<TRIPOS>MOLECULE
D8R
   32    31     1     0     0
SMALL
abcg2


@<TRIPOS>ATOM
      1 N           37.6450    45.5740    24.9720 n8         1 D8R      -1.000200
      2 CA          38.3120    46.2050    26.1030 c3         1 D8R       0.012500
      3 CB          38.9160    47.5470    25.6780 c3         1 D8R      -0.049400
      4 CG          39.9880    47.4340    24.6030 c3         1 D8R      -0.070400
      5 CD          40.6430    48.7700    24.2750 c3         1 D8R      -0.100400
      6 CE          41.7370    48.6150    23.2260 c3         1 D8R       0.098000
      7 NZ          42.4330    49.8480    22.9200 ns         1 D8R      -0.490900
      8 C           37.4310    46.4150    27.3630 c          1 D8R       0.693000
      9 O3          36.1950    46.3250    27.2220 o          1 D8R      -0.734500
     10 C1          42.0240    50.7210    21.9950 c          1 D8R       0.561100
     11 C2          42.9320    51.9310    21.7690 c3         1 D8R       0.091300
     12 C3          44.1450    51.5060    20.9440 c3         1 D8R      -0.121100
     13 O1          41.0210    50.5700    21.3070 o          1 D8R      -0.613100
     14 O2          42.2100    52.9600    21.1520 oh         1 D8R      -0.652000
     15 OXT         38.0450    46.6810    28.4180 o          1 D8R      -0.734500
     16 H1          37.3730    44.6350    25.2400 hn         1 D8R       0.381000
     17 H2          36.7630    46.0550    24.8290 hn         1 D8R       0.381000
     18 H4          39.1450    45.5550    26.3950 h1         1 D8R       0.033700
     19 H5          39.3450    48.0280    26.5600 hc         1 D8R       0.038700
     20 H6          38.1130    48.2090    25.3290 hc         1 D8R       0.038700
     21 H7          39.5610    47.0020    23.6940 hc         1 D8R       0.036200
     22 H8          40.7590    46.7310    24.9390 hc         1 D8R       0.036200
     23 H9          41.0720    49.2040    25.1830 hc         1 D8R       0.043700
     24 H10         39.8890    49.4770    23.9160 hc         1 D8R       0.043700
     25 H11         41.3190    48.2090    22.3040 h1         1 D8R       0.051200
     26 H12         42.4830    47.8990    23.5750 h1         1 D8R       0.051200
     27 H13         43.2310    50.0850    23.4890 hn         1 D8R       0.307500
     28 H14         43.2790    52.3080    22.7370 h1         1 D8R       0.069700
     29 H15         44.7510    50.7710    21.4740 hc         1 D8R       0.043033
     30 H16         43.8370    51.0670    19.9930 hc         1 D8R       0.043033
     31 H17         44.7760    52.3690    20.7330 hc         1 D8R       0.043033
     32 H18         41.5680    52.5420    20.5630 ho         1 D8R       0.468000
@<TRIPOS>BOND
     1     1     2 1   
     2     1    16 1   
     3     1    17 1   
     4     2     3 1   
     5     2     8 1   
     6     2    18 1   
     7     3     4 1   
     8     3    19 1   
     9     3    20 1   
    10     4     5 1   
    11     4    21 1   
    12     4    22 1   
    13     5     6 1   
    14     5    23 1   
    15     5    24 1   
    16     6     7 1   
    17     6    25 1   
    18     6    26 1   
    19     7    10 1   
    20     7    27 1   
    21     8     9 1   
    22     8    15 1   
    23    10    11 1   
    24    10    13 2   
    25    11    12 1   
    26    11    14 1   
    27    11    28 1   
    28    12    29 1   
    29    12    30 1   
    30    12    31 1   
    31    14    32 1   
@<TRIPOS>SUBSTRUCTURE
     1 D8R         1 TEMP              0 ****  ****    0 ROOT
