@<TRIPOS>MOLECULE
D8S
   23    25     1     0     0
SMALL
No Charge or Current Charge


@<TRIPOS>ATOM
      1 C01          2.0720    -2.0940     0.0030 ca         1 D8S      -0.140000
      2 C02          0.6860    -2.3380     0.0080 ca         1 D8S      -0.058000
      3 C03         -0.1970    -1.2480     0.0070 ca         1 D8S      -0.072800
      4 C04         -1.6380    -1.3320     0.0120 cc         1 D8S      -0.209200
      5 C05         -2.2310    -0.0730     0.0090 cd         1 D8S      -0.071600
      6 C06         -3.7070     0.1570     0.0130 c          1 D8S       0.730200
      7 O07         -4.1220     1.3090     0.0100 o          1 D8S      -0.704500
      8 O08         -4.4560    -0.8120     0.0190 o          1 D8S      -0.704500
      9 S09         -1.0400     1.2610     0.0000 ss         1 D8S       0.119400
     10 C10          0.2730     0.0540     0.0010 ca         1 D8S      -0.221000
     11 C11          1.6570     0.3240    -0.0040 ca         1 D8S       0.018000
     12 C12          2.1580     1.6430    -0.0110 ca         1 D8S      -0.098000
     13 C13          3.5450     1.8710    -0.0160 ca         1 D8S      -0.124000
     14 C14          4.4380     0.7870    -0.0150 ca         1 D8S      -0.133000
     15 C15          3.9480    -0.5300    -0.0080 ca         1 D8S      -0.103000
     16 C16          2.5610    -0.7680    -0.0030 ca         1 D8S      -0.041000
     17 H01          2.7630    -2.9330     0.0040 ha         1 D8S       0.094000
     18 H02          0.3060    -3.3570     0.0130 ha         1 D8S       0.104000
     19 H04         -2.2060    -2.2590     0.0170 ha         1 D8S       0.209000
     20 H12          1.4820     2.4940    -0.0120 ha         1 D8S       0.117000
     21 H13          3.9270     2.8890    -0.0210 ha         1 D8S       0.099000
     22 H14          5.5110     0.9670    -0.0190 ha         1 D8S       0.095000
     23 H15          4.6470    -1.3630    -0.0080 ha         1 D8S       0.097000
@<TRIPOS>BOND
     1     1     2 ar  
     2     1    16 ar  
     3     1    17 1   
     4     2     3 ar  
     5     2    18 1   
     6     3     4 1   
     7     3    10 ar  
     8     4     5 2   
     9     4    19 1   
    10     5     6 1   
    11     5     9 1   
    12     6     7 1   
    13     6     8 1   
    14     9    10 1   
    15    10    11 ar  
    16    11    12 ar  
    17    11    16 ar  
    18    12    13 ar  
    19    12    20 1   
    20    13    14 ar  
    21    13    21 1   
    22    14    15 ar  
    23    14    22 1   
    24    15    16 ar  
    25    15    23 1   
@<TRIPOS>SUBSTRUCTURE
     1 D8S         1 TEMP              0 ****  ****    0 ROOT
