@<TRIPOS>MOLECULE
D8S
   23    25     1     0     0
SMALL
bcc


@<TRIPOS>ATOM
      1 C01          2.0600    -2.1040     0.0020 ca         1 D8S      -0.158000
      2 C02          0.7260    -2.3720     0.0070 ca         1 D8S      -0.076000
      3 C03         -0.2080    -1.3030     0.0060 ca         1 D8S      -0.072800
      4 C04         -1.6350    -1.3690     0.0120 cc         1 D8S      -0.159200
      5 C05         -2.2200    -0.1450     0.0100 cd         1 D8S      -0.071600
      6 C06         -3.6770     0.2310     0.0130 c          1 D8S       0.940800
      7 O07         -3.9040     1.4560     0.0040 o          1 D8S      -0.809800
      8 O08         -4.4920    -0.7060     0.0250 o          1 D8S      -0.809800
      9 S09         -1.0550     1.1370    -0.0000 ss         1 D8S      -0.007500
     10 C10          0.2550     0.0110    -0.0010 ca         1 D8S      -0.094100
     11 C11          1.6400     0.3220    -0.0050 ca         1 D8S       0.018000
     12 C12          2.1430     1.6400    -0.0110 ca         1 D8S      -0.116000
     13 C13          3.4940     1.8740    -0.0150 ca         1 D8S      -0.142000
     14 C14          4.4000     0.7980    -0.0130 ca         1 D8S      -0.151000
     15 C15          3.9350    -0.4920    -0.0080 ca         1 D8S      -0.121000
     16 C16          2.5500    -0.7660    -0.0040 ca         1 D8S      -0.041000
     17 H01          2.7780    -2.9150     0.0040 ha         1 D8S       0.112000
     18 H02          0.3690    -3.3940     0.0120 ha         1 D8S       0.122000
     19 H04         -2.1970    -2.2930     0.0180 ha         1 D8S       0.159000
     20 H12          1.4540     2.4770    -0.0120 ha         1 D8S       0.135000
     21 H13          3.8650     2.8900    -0.0200 ha         1 D8S       0.117000
     22 H14          5.4650     0.9910    -0.0170 ha         1 D8S       0.113000
     23 H15          4.6310    -1.3210    -0.0080 ha         1 D8S       0.115000
@<TRIPOS>BOND
     1     1     2 ar  
     2     1    16 ar  
     3     1    17 1   
     4     2     3 ar  
     5     2    18 1   
     6     3     4 1   
     7     3    10 ar  
     8     4     5 2   
     9     4    19 1   
    10     5     6 1   
    11     5     9 1   
    12     6     7 1   
    13     6     8 1   
    14     9    10 1   
    15    10    11 ar  
    16    11    12 ar  
    17    11    16 ar  
    18    12    13 ar  
    19    12    20 1   
    20    13    14 ar  
    21    13    21 1   
    22    14    15 ar  
    23    14    22 1   
    24    15    16 ar  
    25    15    23 1   
@<TRIPOS>SUBSTRUCTURE
     1 D8S         1 TEMP              0 ****  ****    0 ROOT
