@<TRIPOS>MOLECULE
D8T
   20    19     1     0     0
SMALL
No Charge or Current Charge


@<TRIPOS>ATOM
      1 OAA          3.3980     0.1760    -0.2910 o          1 D8T      -0.716500
      2 OAB         -0.0700    -1.2820    -1.2050 oh         1 D8T      -0.723000
      3 OAC         -1.6070     0.9760     1.3240 oh         1 D8T      -0.703000
      4 CAD          2.3960     0.0420     0.4020 c          1 D8T       0.700000
      5 CAE          1.0350     0.5540    -0.1970 c3         1 D8T      -0.011700
      6 CAF         -0.1230    -0.4740    -0.0260 c3         1 D8T       0.141300
      7 CAG         -1.5300     0.1900     0.1220 c3         1 D8T       0.133300
      8 CAH         -2.6890    -0.8410     0.1880 c3         1 D8T       0.121600
      9 OAI         -3.9140    -0.1740     0.5540 oh         1 D8T      -0.717000
     10 OAJ          2.4160    -0.4360     1.5280 o          1 D8T      -0.716500
     11 OAK          1.1440     0.9260    -1.6150 oh         1 D8T      -0.776000
     12 HAE          0.7930     1.4460     0.3950 h1         1 D8T       0.048700
     13 HAF          0.0510    -1.0880     0.8700 h1         1 D8T       0.074700
     14 HAG         -1.7000     0.8300    -0.7560 h1         1 D8T       0.087700
     15 HAH         -2.7980    -1.3280    -0.7910 h1         1 D8T       0.022700
     16 HAHA        -2.4450    -1.6190     0.9240 h1         1 D8T       0.022700
     17 HOAI        -4.6370    -0.8430     0.4910 ho         1 D8T       0.482000
     18 HOAK         2.1110     1.1050    -1.7610 ho         1 D8T       0.537000
     19 HOAB         0.3850    -0.6470    -1.8230 ho         1 D8T       0.505000
     20 HOAC        -2.5740     0.9520     1.5350 ho         1 D8T       0.487000
@<TRIPOS>BOND
     1     1     4 1   
     2     2     6 1   
     3     2    19 1   
     4     3     7 1   
     5     3    20 1   
     6     4     5 1   
     7     4    10 1   
     8     5     6 1   
     9     5    11 1   
    10     5    12 1   
    11     6     7 1   
    12     6    13 1   
    13     7     8 1   
    14     7    14 1   
    15     8     9 1   
    16     8    15 1   
    17     8    16 1   
    18     9    17 1   
    19    11    18 1   
@<TRIPOS>SUBSTRUCTURE
     1 D8T         1 TEMP              0 ****  ****    0 ROOT
