@<TRIPOS>MOLECULE
D8T
   20    19     1     0     0
SMALL
abcg2


@<TRIPOS>ATOM
      1 OAA          3.1340     0.1050    -0.7040 o          1 D8T      -0.716500
      2 OAB          0.0100    -1.3650    -0.9120 oh         1 D8T      -0.723000
      3 OAC         -1.7260     1.2390     1.0030 oh         1 D8T      -0.703000
      4 CAD          2.3310    -0.0530     0.2440 c          1 D8T       0.700000
      5 CAE          0.9600     0.6330     0.0470 c3         1 D8T      -0.011700
      6 CAF         -0.1640    -0.3990     0.1030 c3         1 D8T       0.141300
      7 CAG         -1.5600     0.2430     0.0170 c3         1 D8T       0.133300
      8 CAH         -2.6520    -0.8110     0.1000 c3         1 D8T       0.121600
      9 OAI         -3.9050    -0.1850    -0.0590 oh         1 D8T      -0.717000
     10 OAJ          2.5180    -0.6760     1.2990 o          1 D8T      -0.716500
     11 OAK          0.9480     1.2860    -1.2010 oh         1 D8T      -0.776000
     12 HAE          0.8220     1.3550     0.8620 h1         1 D8T       0.048700
     13 HAF         -0.0880    -0.9340     1.0570 h1         1 D8T       0.074700
     14 HAG         -1.6470     0.7620    -0.9450 h1         1 D8T       0.087700
     15 HAH         -2.4790    -1.5670    -0.6730 h1         1 D8T       0.022700
     16 HAHA        -2.5780    -1.3250     1.0710 h1         1 D8T       0.022700
     17 HOAI        -4.5820    -0.8670    -0.0320 ho         1 D8T       0.482000
     18 HOAK         1.8440     1.0850    -1.5380 ho         1 D8T       0.537000
     19 HOAB         0.1250    -0.8850    -1.7410 ho         1 D8T       0.505000
     20 HOAC        -1.6690     0.8230     1.8700 ho         1 D8T       0.487000
@<TRIPOS>BOND
     1     1     4 1   
     2     2     6 1   
     3     2    19 1   
     4     3     7 1   
     5     3    20 1   
     6     4     5 1   
     7     4    10 1   
     8     5     6 1   
     9     5    11 1   
    10     5    12 1   
    11     6     7 1   
    12     6    13 1   
    13     7     8 1   
    14     7    14 1   
    15     8     9 1   
    16     8    15 1   
    17     8    16 1   
    18     9    17 1   
    19    11    18 1   
@<TRIPOS>SUBSTRUCTURE
     1 D8T         1 TEMP              0 ****  ****    0 ROOT
