@<TRIPOS>MOLECULE
D8V
   37    38     1     0     0
SMALL
bcc


@<TRIPOS>ATOM
      1 C4           0.6510    11.8470     9.6480 c3         1 D8V       0.125500
      2 C5           1.3090    10.5560    10.0120 cc         1 D8V       0.424700
      3 C6           1.7100     8.3960    10.1810 cd         1 D8V       0.317600
      4 N1           0.8280     9.3780     9.8050 nd         1 D8V      -0.630000
      5 C7           2.8830     8.8590    10.6880 cc         1 D8V      -0.214400
      6 C8           1.2920     6.9540    10.0140 c6         1 D8V       0.139500
      7 N2           1.8080     4.3770     8.7780 n7         1 D8V      -0.810200
      8 C9           1.0140     6.6650     8.5360 c6         1 D8V      -0.081400
      9 C10          0.7110     5.1940     8.2910 c6         1 D8V       0.162800
     10 C11          2.0020     4.5420    10.2080 c6         1 D8V       0.162800
     11 C12          2.3690     5.9860    10.5130 c6         1 D8V      -0.081400
     12 O            0.0710     6.7430    10.7010 oh         1 D8V      -0.582800
     13 S            2.8940    10.5760    10.7000 ss         1 D8V      -0.130300
     14 N            1.1040    12.9050    10.5250 n3         1 D8V      -0.727600
     15 C            0.4460    12.8510    11.8180 c3         1 D8V       0.148100
     16 C1           0.9740    14.2250     9.9330 c3         1 D8V       0.256900
     17 C2           1.8600    14.4040     8.7860 c1         1 D8V      -0.153100
     18 C3           2.5820    14.5610     7.8380 c1         1 D8V      -0.137500
     19 H1           0.9350    12.0870     8.6190 h1         1 D8V       0.066200
     20 H2          -0.4400    11.7110     9.6510 h1         1 D8V       0.066200
     21 H3           3.7230     8.2970    11.0630 h4         1 D8V       0.176000
     22 H4           1.6230     3.4040     8.5730 hn         1 D8V       0.354800
     23 H6           1.8950     6.9520     7.9550 hc         1 D8V       0.056950
     24 H7           0.1860     7.2850     8.1870 hc         1 D8V       0.056950
     25 H8          -0.2520     4.9340     8.7550 h1         1 D8V       0.034200
     26 H9           0.5970     5.0270     7.2170 h1         1 D8V       0.034200
     27 H10          1.1160     4.2570    10.7950 h1         1 D8V       0.034200
     28 H11          2.8160     3.8890    10.5310 h1         1 D8V       0.034200
     29 H12          3.3200     6.2180    10.0260 hc         1 D8V       0.056950
     30 H13          2.5230     6.1110    11.5900 hc         1 D8V       0.056950
     31 H14          0.2370     6.8160    11.6470 ho         1 D8V       0.399000
     32 H16          0.8840    13.5890    12.4900 h1         1 D8V       0.038033
     33 H17         -0.6350    13.0400    11.7570 h1         1 D8V       0.038033
     34 H18          0.5900    11.8690    12.2690 h1         1 D8V       0.038033
     35 H19          1.2370    14.9660    10.6930 h1         1 D8V       0.051700
     36 H20         -0.0580    14.4550     9.6290 h1         1 D8V       0.051700
     37 H21          3.2270    14.7000     7.0010 ha         1 D8V       0.168500
@<TRIPOS>BOND
     1     1     2 1   
     2     1    14 1   
     3     1    19 1   
     4     1    20 1   
     5     2     4 2   
     6     2    13 1   
     7     3     4 1   
     8     3     5 2   
     9     3     6 1   
    10     5    13 1   
    11     5    21 1   
    12     6     8 1   
    13     6    11 1   
    14     6    12 1   
    15     7     9 1   
    16     7    10 1   
    17     7    22 1   
    18     8     9 1   
    19     8    23 1   
    20     8    24 1   
    21     9    25 1   
    22     9    26 1   
    23    10    11 1   
    24    10    27 1   
    25    10    28 1   
    26    11    29 1   
    27    11    30 1   
    28    12    31 1   
    29    14    15 1   
    30    14    16 1   
    31    15    32 1   
    32    15    33 1   
    33    15    34 1   
    34    16    17 1   
    35    16    35 1   
    36    16    36 1   
    37    17    18 3   
    38    18    37 1   
@<TRIPOS>SUBSTRUCTURE
     1 D8V         1 TEMP              0 ****  ****    0 ROOT
