@<TRIPOS>MOLECULE
D8V
   37    38     1     0     0
SMALL
No Charge or Current Charge


@<TRIPOS>ATOM
      1 C4           1.0120    12.0380     9.4560 c3         1 D8V       0.125500
      2 C5           1.5960    10.6360     9.4160 cc         1 D8V       0.424700
      3 C6           1.6920     8.4100     9.4790 cd         1 D8V       0.252300
      4 N1           0.8690     9.5310     9.5600 nd         1 D8V      -0.630000
      5 C7           3.0240     8.6920     9.2690 cc         1 D8V      -0.276000
      6 C8           1.1340     6.9870     9.6150 c6         1 D8V       0.162700
      7 N2           1.6980     4.0690     9.6460 n7         1 D8V      -0.865400
      8 C9           1.4150     6.1700     8.3200 c6         1 D8V      -0.081400
      9 C10          1.0230     4.6800     8.4760 c6         1 D8V       0.162800
     10 C11          1.3790     4.7750    10.9100 c6         1 D8V       0.162800
     11 C12          1.7820     6.2680    10.8340 c6         1 D8V      -0.081400
     12 O           -0.2860     7.0770     9.8190 oh         1 D8V      -0.645000
     13 S            3.3060    10.4060     9.1640 ss         1 D8V       0.014600
     14 N            1.3700    12.8660    10.6580 n3         1 D8V      -0.727600
     15 C            0.9350    12.2420    11.9310 c3         1 D8V       0.148100
     16 C1           0.9310    14.2820    10.5560 c3         1 D8V       0.256900
     17 C2           1.6190    15.0360     9.4950 c1         1 D8V      -0.153100
     18 C3           2.1730    15.6380     8.6020 c1         1 D8V      -0.225000
     19 H1           1.3480    12.5370     8.5370 h1         1 D8V       0.066200
     20 H2          -0.0800    11.9510     9.3760 h1         1 D8V       0.066200
     21 H3           3.8550     8.0070     9.1700 h4         1 D8V       0.158000
     22 H4           1.3930     3.0910     9.7290 hn         1 D8V       0.410000
     23 H6           2.4820     6.2260     8.0660 hc         1 D8V       0.056950
     24 H7           0.8750     6.6090     7.4700 hc         1 D8V       0.056950
     25 H8          -0.0680     4.5940     8.5940 h1         1 D8V       0.034200
     26 H9           1.3010     4.1300     7.5640 h1         1 D8V       0.034200
     27 H10          0.3010     4.6920    11.1160 h1         1 D8V       0.034200
     28 H11          1.9110     4.2930    11.7440 h1         1 D8V       0.034200
     29 H12          2.8770     6.3310    10.7680 hc         1 D8V       0.056950
     30 H13          1.5020     6.7760    11.7670 hc         1 D8V       0.056950
     31 H14         -0.4550     8.0490     9.8100 ho         1 D8V       0.438000
     32 H16          1.2630    12.8410    12.7910 h1         1 D8V       0.038033
     33 H17         -0.1590    12.1550    11.9710 h1         1 D8V       0.038033
     34 H18          1.3640    11.2370    12.0460 h1         1 D8V       0.038033
     35 H19          1.1280    14.8050    11.5030 h1         1 D8V       0.051700
     36 H20         -0.1520    14.3360    10.3810 h1         1 D8V       0.051700
     37 H21          2.6760    16.1630     7.8130 ha         1 D8V       0.256000
@<TRIPOS>BOND
     1     1     2 1   
     2     1    14 1   
     3     1    19 1   
     4     1    20 1   
     5     2     4 2   
     6     2    13 1   
     7     3     4 1   
     8     3     5 2   
     9     3     6 1   
    10     5    13 1   
    11     5    21 1   
    12     6     8 1   
    13     6    11 1   
    14     6    12 1   
    15     7     9 1   
    16     7    10 1   
    17     7    22 1   
    18     8     9 1   
    19     8    23 1   
    20     8    24 1   
    21     9    25 1   
    22     9    26 1   
    23    10    11 1   
    24    10    27 1   
    25    10    28 1   
    26    11    29 1   
    27    11    30 1   
    28    12    31 1   
    29    14    15 1   
    30    14    16 1   
    31    15    32 1   
    32    15    33 1   
    33    15    34 1   
    34    16    17 1   
    35    16    35 1   
    36    16    36 1   
    37    17    18 3   
    38    18    37 1   
@<TRIPOS>SUBSTRUCTURE
     1 D8V         1 TEMP              0 ****  ****    0 ROOT
