@<TRIPOS>MOLECULE
D8W
   27    28     1     0     0
SMALL
bcc


@<TRIPOS>ATOM
      1 C1          -3.3190    -0.8720     1.1200 ca         1 D8W      -0.020500
      2 C2          -3.5720    -2.2320     1.1930 ca         1 D8W      -0.149500
      3 C3          -3.4210    -3.0310     0.0660 ca         1 D8W      -0.067000
      4 C4          -3.0160    -2.4760    -1.1400 ca         1 D8W      -0.149500
      5 C5          -2.7530    -1.1170    -1.2300 ca         1 D8W      -0.020500
      6 C6          -2.9090    -0.3350    -0.0950 ca         1 D8W      -0.301500
      7 S1          -2.5820     1.3950    -0.1750 sy         1 D8W       1.325200
      8 O1          -2.4870     1.8090    -1.5550 o          1 D8W      -0.584300
      9 O2          -3.4460     2.1010     0.7480 o          1 D8W      -0.584300
     10 N1          -1.0610     1.5500     0.5420 nu         1 D8W      -0.803800
     11 C7           0.0730     0.9860     0.0520 cc         1 D8W       0.685300
     12 S2           1.5670     1.0490     0.9220 ss         1 D8W      -0.154800
     13 N2           0.1400     0.3630    -1.0870 nd         1 D8W      -0.404000
     14 N3           1.3710    -0.1040    -1.3390 nd         1 D8W      -0.176000
     15 C8           2.2110     0.1630    -0.4080 cc         1 D8W       0.168300
     16 S3           3.9080    -0.3490    -0.4360 sy         1 D8W       1.277800
     17 O3           4.2920    -0.4080    -1.8290 o          1 D8W      -0.595300
     18 O4           4.5760     0.5270     0.5060 o          1 D8W      -0.595300
     19 N4           3.8410    -1.8340     0.2250 n8         1 D8W      -0.950700
     20 H1          -3.4420    -0.2510     1.9970 ha         1 D8W       0.159500
     21 H2          -3.8920    -2.6660     2.1300 ha         1 D8W       0.140500
     22 H3          -3.6210    -4.0920     0.1290 ha         1 D8W       0.136000
     23 H4          -2.9020    -3.1010    -2.0150 ha         1 D8W       0.140500
     24 H5          -2.4310    -0.6850    -2.1660 ha         1 D8W       0.159500
     25 HN1         -1.0620     1.9620     1.4670 hn         1 D8W       0.471800
     26 HN4          3.8200    -2.6040    -0.4320 hn         1 D8W       0.445800
     27 HN4A         4.4670    -1.9780     1.0080 hn         1 D8W       0.445800
@<TRIPOS>BOND
     1     1     2 ar  
     2     1     6 ar  
     3     1    20 1   
     4     2     3 ar  
     5     2    21 1   
     6     3     4 ar  
     7     3    22 1   
     8     4     5 ar  
     9     4    23 1   
    10     5     6 ar  
    11     5    24 1   
    12     6     7 1   
    13     7     8 2   
    14     7     9 2   
    15     7    10 1   
    16    10    11 1   
    17    10    25 1   
    18    11    12 1   
    19    11    13 2   
    20    12    15 1   
    21    13    14 1   
    22    14    15 2   
    23    15    16 1   
    24    16    17 2   
    25    16    18 2   
    26    16    19 1   
    27    19    26 1   
    28    19    27 1   
@<TRIPOS>SUBSTRUCTURE
     1 D8W         1 TEMP              0 ****  ****    0 ROOT
