@<TRIPOS>MOLECULE
D8W
   27    28     1     0     0
SMALL
No Charge or Current Charge


@<TRIPOS>ATOM
      1 C1          -2.7760    -0.8680     1.1840 ca         1 D8W      -0.002500
      2 C2          -2.7070    -2.2710     1.2540 ca         1 D8W      -0.131500
      3 C3          -2.6110    -3.0340     0.0780 ca         1 D8W      -0.049000
      4 C4          -2.5830    -2.3940    -1.1720 ca         1 D8W      -0.131500
      5 C5          -2.6510    -0.9920    -1.2510 ca         1 D8W      -0.002500
      6 C6          -2.7460    -0.2240    -0.0710 ca         1 D8W      -0.301500
      7 S1          -2.8130     1.5720    -0.1600 sy         1 D8W       1.183600
      8 O1          -3.0970     2.0150    -1.5270 o          1 D8W      -0.513500
      9 O2          -3.5320     2.0980     1.0010 o          1 D8W      -0.513500
     10 N1          -1.2630     2.0890     0.1280 nu         1 D8W      -0.859000
     11 C7          -0.1910     1.3380    -0.2060 cc         1 D8W       0.685300
     12 S2           1.0470     0.9250     0.9320 ss         1 D8W      -0.154800
     13 N2           0.0220     0.9470    -1.4490 nd         1 D8W      -0.404000
     14 N3           1.1980     0.2260    -1.5670 nd         1 D8W      -0.176000
     15 C8           1.8400     0.1300    -0.4070 cc         1 D8W       0.168300
     16 S3           3.4210    -0.7570    -0.2030 sy         1 D8W       1.136200
     17 O3           4.0710    -0.9760    -1.4960 o          1 D8W      -0.524500
     18 O4           4.1550    -0.2450     0.9550 o          1 D8W      -0.524500
     19 N4           3.0030    -2.2750     0.2690 n8         1 D8W      -1.061100
     20 H1          -2.8490    -0.2920     2.1060 ha         1 D8W       0.141500
     21 H2          -2.7290    -2.7670     2.2210 ha         1 D8W       0.122500
     22 H3          -2.5570    -4.1190     0.1360 ha         1 D8W       0.118000
     23 H4          -2.5060    -2.9840    -2.0820 ha         1 D8W       0.122500
     24 H5          -2.6220    -0.5110    -2.2280 ha         1 D8W       0.141500
     25 HN1         -1.2780     2.3460     1.1010 hn         1 D8W       0.527000
     26 HN4          3.5000    -2.8250    -0.4310 hn         1 D8W       0.501000
     27 HN4A         3.6050    -2.3830     1.0830 hn         1 D8W       0.501000
@<TRIPOS>BOND
     1     1     2 ar  
     2     1     6 ar  
     3     1    20 1   
     4     2     3 ar  
     5     2    21 1   
     6     3     4 ar  
     7     3    22 1   
     8     4     5 ar  
     9     4    23 1   
    10     5     6 ar  
    11     5    24 1   
    12     6     7 1   
    13     7     8 2   
    14     7     9 2   
    15     7    10 1   
    16    10    11 1   
    17    10    25 1   
    18    11    12 1   
    19    11    13 2   
    20    12    15 1   
    21    13    14 1   
    22    14    15 2   
    23    15    16 1   
    24    16    17 2   
    25    16    18 2   
    26    16    19 1   
    27    19    26 1   
    28    19    27 1   
@<TRIPOS>SUBSTRUCTURE
     1 D8W         1 TEMP              0 ****  ****    0 ROOT
