@<TRIPOS>MOLECULE
D8Y
   29    30     1     0     0
SMALL
abcg2


@<TRIPOS>ATOM
      1 C1          -5.0700    -0.8190     0.2950 ca         1 D8Y       0.381900
      2 N1          -4.6460     0.4400     0.2580 nb         1 D8Y      -0.744000
      3 CL1          4.6300    -1.5120    -0.0630 cl         1 D8Y      -0.208000
      4 C2          -3.3710     0.6800    -0.0330 ca         1 D8Y       0.591900
      5 N2          -2.9760     1.9910     0.0020 nv         1 D8Y      -1.047900
      6 C3          -2.4480    -0.3520    -0.3160 ca         1 D8Y      -0.192300
      7 C4          -2.9270    -1.6470    -0.2750 ca         1 D8Y      -0.036000
      8 C5          -4.2600    -1.9050     0.0360 ca         1 D8Y      -0.215000
      9 C6          -1.0000    -0.0660    -0.5870 c3         1 D8Y      -0.014100
     10 C7          -0.2130     0.2260     0.7030 c3         1 D8Y      -0.036100
     11 C8           1.2280     0.5310     0.4110 ca         1 D8Y      -0.069300
     12 C9           1.6460     1.8350     0.1600 ca         1 D8Y      -0.109000
     13 C10          2.9690     2.1070    -0.1550 ca         1 D8Y      -0.100000
     14 C11          3.9020     1.0830    -0.2290 ca         1 D8Y      -0.105000
     15 C12          3.4800    -0.2130     0.0200 ca         1 D8Y       0.123000
     16 C13          2.1620    -0.5000     0.3370 ca         1 D8Y      -0.102000
     17 H1          -6.1170    -0.9620     0.5420 h4         1 D8Y       0.016100
     18 HN2         -3.7260     2.6630    -0.0290 hn         1 D8Y       0.465000
     19 HN2A        -2.1860     2.2580    -0.5630 hn         1 D8Y       0.465000
     20 H4          -2.2500    -2.4670    -0.4840 ha         1 D8Y       0.114000
     21 H5          -4.6480    -2.9130     0.0740 ha         1 D8Y       0.125000
     22 H6          -0.5510    -0.9270    -1.0870 hc         1 D8Y       0.044700
     23 H6A         -0.8820     0.7700    -1.2830 hc         1 D8Y       0.044700
     24 H7          -0.6690     1.0660     1.2320 hc         1 D8Y       0.059200
     25 H7A         -0.2890    -0.6400     1.3620 hc         1 D8Y       0.059200
     26 H9           0.9300     2.6470     0.2170 ha         1 D8Y       0.114000
     27 H10          3.2830     3.1260    -0.3440 ha         1 D8Y       0.117000
     28 H11          4.9350     1.2920    -0.4710 ha         1 D8Y       0.129000
     29 H13          1.8590    -1.5210     0.5310 ha         1 D8Y       0.128000
@<TRIPOS>BOND
     1     1     2 ar  
     2     1     8 ar  
     3     1    17 1   
     4     2     4 ar  
     5     3    15 1   
     6     4     5 1   
     7     4     6 ar  
     8     5    18 1   
     9     5    19 1   
    10     6     7 ar  
    11     6     9 1   
    12     7     8 ar  
    13     7    20 1   
    14     8    21 1   
    15     9    10 1   
    16     9    22 1   
    17     9    23 1   
    18    10    11 1   
    19    10    24 1   
    20    10    25 1   
    21    11    12 ar  
    22    11    16 ar  
    23    12    13 ar  
    24    12    26 1   
    25    13    14 ar  
    26    13    27 1   
    27    14    15 ar  
    28    14    28 1   
    29    15    16 ar  
    30    16    29 1   
@<TRIPOS>SUBSTRUCTURE
     1 D8Y         1 TEMP              0 ****  ****    0 ROOT
