@<TRIPOS>MOLECULE
D8Y
   29    30     1     0     0
SMALL
No Charge or Current Charge


@<TRIPOS>ATOM
      1 C1          -5.1230    -0.8130     0.2950 ca         1 D8Y       0.381900
      2 N1          -4.7220     0.4720     0.1750 nb         1 D8Y      -0.744000
      3 Cl1          4.6720    -1.5940    -0.2940 cl         1 D8Y      -0.208000
      4 C2          -3.4390     0.6800    -0.0950 ca         1 D8Y       0.591900
      5 N2          -3.2010     1.9940    -0.1860 nv         1 D8Y      -1.047900
      6 C3          -2.4700    -0.3290    -0.2730 ca         1 D8Y      -0.192300
      7 C4          -2.8960    -1.6630    -0.1450 ca         1 D8Y      -0.036000
      8 C5          -4.2480    -1.9020     0.1440 ca         1 D8Y      -0.215000
      9 C6          -1.0050    -0.0240    -0.5810 c3         1 D8Y      -0.014100
     10 C7          -0.1810     0.2380     0.6970 c3         1 D8Y      -0.036100
     11 C8           1.2810     0.5280     0.3890 ca         1 D8Y      -0.069300
     12 C9           1.7350     1.8570     0.2700 ca         1 D8Y      -0.109000
     13 C10          3.0840     2.1240    -0.0190 ca         1 D8Y      -0.100000
     14 C11          3.9890     1.0620    -0.1920 ca         1 D8Y      -0.105000
     15 C12          3.5410    -0.2640    -0.0760 ca         1 D8Y       0.123000
     16 C13          2.1930    -0.5320     0.2130 ca         1 D8Y      -0.102000
     17 H1          -6.1770    -0.9750     0.5180 h4         1 D8Y       0.016100
     18 HN2         -4.0290     2.5710    -0.2630 hn         1 D8Y       0.465000
     19 HN2A        -2.3860     2.2900    -0.7070 hn         1 D8Y       0.465000
     20 H4          -2.1990    -2.4920    -0.2640 ha         1 D8Y       0.114000
     21 H5          -4.6220    -2.9160     0.2510 ha         1 D8Y       0.125000
     22 H6          -0.5540    -0.8630    -1.1250 hc         1 D8Y       0.044700
     23 H6A         -0.9200     0.8420    -1.2490 hc         1 D8Y       0.044700
     24 H7          -0.6270     1.0750     1.2480 hc         1 D8Y       0.059200
     25 H7A         -0.2590    -0.6360     1.3570 hc         1 D8Y       0.059200
     26 H9           1.0400     2.6840     0.4000 ha         1 D8Y       0.114000
     27 H10          3.4280     3.1520    -0.1100 ha         1 D8Y       0.117000
     28 H11          5.0330     1.2650    -0.4170 ha         1 D8Y       0.129000
     29 H13          1.8580    -1.5620     0.2990 ha         1 D8Y       0.128000
@<TRIPOS>BOND
     1     1     2 ar  
     2     1     8 ar  
     3     1    17 1   
     4     2     4 ar  
     5     3    15 1   
     6     4     5 1   
     7     4     6 ar  
     8     5    18 1   
     9     5    19 1   
    10     6     7 ar  
    11     6     9 1   
    12     7     8 ar  
    13     7    20 1   
    14     8    21 1   
    15     9    10 1   
    16     9    22 1   
    17     9    23 1   
    18    10    11 1   
    19    10    24 1   
    20    10    25 1   
    21    11    12 ar  
    22    11    16 ar  
    23    12    13 ar  
    24    12    26 1   
    25    13    14 ar  
    26    13    27 1   
    27    14    15 ar  
    28    14    28 1   
    29    15    16 ar  
    30    16    29 1   
@<TRIPOS>SUBSTRUCTURE
     1 D8Y         1 TEMP              0 ****  ****    0 ROOT
