@<TRIPOS>MOLECULE
D90
   52    56     1     0     0
SMALL
bcc


@<TRIPOS>ATOM
      1 C1          -2.5730     0.8570    -0.2730 cc         1 D90      -0.156300
      2 N1          -2.3640     0.1390     0.8790 na         1 D90      -0.164400
      3 O1          -2.4490     2.9100    -1.4070 o          1 D90      -0.556100
      4 CL1         -5.3470    -4.7000    -0.3520 cl         1 D90      -0.114400
      5 C2          -1.9900     2.1830    -0.5460 c          1 D90       0.702300
      6 C3          -3.3430     0.1250    -1.1360 cd         1 D90      -0.097200
      7 C4          -3.6330    -1.1050    -0.4840 ca         1 D90      -0.115800
      8 C5          -3.0150    -1.0520     0.7830 ca         1 D90      -0.035200
      9 C6          -4.3610    -2.2440    -0.8540 ca         1 D90      -0.056000
     10 C7          -3.1220    -2.0960     1.7020 ca         1 D90      -0.143000
     11 C8          -3.8460    -3.2060     1.3260 ca         1 D90      -0.091000
     12 C9          -4.4510    -3.2680     0.0590 ca         1 D90      -0.004600
     13 C10          1.2760     6.0680    -0.0060 ca         1 D90      -0.122000
     14 C11          1.9250     4.8480    -0.1030 ca         1 D90      -0.106000
     15 C13         -0.1050     6.1140     0.1340 ca         1 D90      -0.118000
     16 C15         -0.8390     4.9410     0.1900 ca         1 D90      -0.110000
     17 CC1          2.8980     1.9890     0.4860 c          1 D90       0.602600
     18 OC1          3.5330     2.6790     1.2560 o          1 D90      -0.530100
     19 CP1         -0.1950     3.7130     0.1050 ca         1 D90       0.032600
     20 NP1         -0.9040     2.5030     0.2070 ns         1 D90      -0.494100
     21 CP2          1.1940     3.6670    -0.0570 ca         1 D90       0.023600
     22 NP2          1.8030     2.4040    -0.1960 ns         1 D90      -0.498100
     23 CZ1          3.2710     0.5690     0.2450 cc         1 D90       0.354900
     24 NZ1          4.4810     0.1340     0.3940 nd         1 D90      -0.570000
     25 SZ1          2.1190    -0.6520    -0.1700 ss         1 D90      -0.164300
     26 CZ2          3.3750    -1.8090    -0.1540 cc         1 D90      -0.141700
     27 NZ2          4.5250    -3.8490    -0.6710 n3         1 D90      -0.712600
     28 CZ3          3.2210    -3.2700    -0.4150 c6         1 D90       0.244100
     29 CZ4          5.4900    -3.4750     0.3500 c6         1 D90       0.162800
     30 CZ5          5.8200    -1.9890     0.2660 c6         1 D90      -0.100700
     31 CZ6          4.5550    -1.2050     0.1680 cd         1 D90       0.356600
     32 CZ7          4.4210    -5.2830    -0.8290 c3         1 D90       0.151100
     33 HN1         -1.9790     0.5010     1.7380 hn         1 D90       0.302700
     34 H3          -3.6380     0.4210    -2.1300 ha         1 D90       0.175000
     35 H6          -4.8380    -2.3110    -1.8230 ha         1 D90       0.154000
     36 H7          -2.6530    -2.0480     2.6760 ha         1 D90       0.140000
     37 H8          -3.9480    -4.0380     2.0100 ha         1 D90       0.148000
     38 H10          1.8510     6.9830    -0.0500 ha         1 D90       0.139000
     39 H11          2.9960     4.8150    -0.2390 ha         1 D90       0.155000
     40 H13         -0.6130     7.0660     0.2100 ha         1 D90       0.139000
     41 H15         -1.9100     4.9810     0.3270 ha         1 D90       0.150000
     42 HNP1        -0.4780     1.7860     0.7750 hn         1 D90       0.320500
     43 HNP2         1.4290     1.8070    -0.9210 hn         1 D90       0.328500
     44 HZ3          2.7170    -3.7390     0.4490 h1         1 D90       0.049200
     45 HZ3A         2.5760    -3.4390    -1.2810 h1         1 D90       0.049200
     46 HZ4          5.1250    -3.7160     1.3630 h1         1 D90       0.039700
     47 HZ4A         6.4000    -4.0570     0.1950 h1         1 D90       0.039700
     48 HZ5          6.3890    -1.6810     1.1450 hc         1 D90       0.071200
     49 HZ5A         6.4500    -1.7930    -0.6060 hc         1 D90       0.071200
     50 HZ7          3.7190    -5.5180    -1.6300 h1         1 D90       0.034700
     51 HZ7A         5.3920    -5.6970    -1.1030 h1         1 D90       0.034700
     52 HZ7B         4.0770    -5.7990     0.0800 h1         1 D90       0.034700
@<TRIPOS>BOND
     1     1     2 1   
     2     1     5 1   
     3     1     6 2   
     4     2     8 1   
     5     2    33 1   
     6     3     5 2   
     7     4    12 1   
     8     5    20 1   
     9     6     7 1   
    10     6    34 1   
    11     7     8 ar  
    12     7     9 ar  
    13     8    10 ar  
    14     9    12 ar  
    15     9    35 1   
    16    10    11 ar  
    17    10    36 1   
    18    11    12 ar  
    19    11    37 1   
    20    13    14 ar  
    21    13    15 ar  
    22    13    38 1   
    23    14    21 ar  
    24    14    39 1   
    25    15    16 ar  
    26    15    40 1   
    27    16    19 ar  
    28    16    41 1   
    29    17    18 2   
    30    17    22 1   
    31    17    23 1   
    32    19    20 1   
    33    19    21 ar  
    34    20    42 1   
    35    21    22 1   
    36    22    43 1   
    37    23    24 2   
    38    23    25 1   
    39    24    31 1   
    40    25    26 1   
    41    26    28 1   
    42    26    31 2   
    43    27    28 1   
    44    27    29 1   
    45    27    32 1   
    46    28    44 1   
    47    28    45 1   
    48    29    30 1   
    49    29    46 1   
    50    29    47 1   
    51    30    31 1   
    52    30    48 1   
    53    30    49 1   
    54    32    50 1   
    55    32    51 1   
    56    32    52 1   
@<TRIPOS>SUBSTRUCTURE
     1 D90         1 TEMP              0 ****  ****    0 ROOT
