@<TRIPOS>MOLECULE
D90
   52    56     1     0     0
SMALL
No Charge or Current Charge


@<TRIPOS>ATOM
      1 C1          -2.5440     0.8380    -0.2630 cc         1 D90      -0.156300
      2 N1          -1.8750    -0.1950     0.4480 na         1 D90      -0.214700
      3 O1          -2.8850     3.0120    -1.1980 o          1 D90      -0.556100
      4 Cl1         -5.7160    -4.6640    -0.0070 cl         1 D90      -0.206000
      5 C2          -2.1650     2.2470    -0.5650 c          1 D90       0.635300
      6 C3          -3.7360     0.2480    -0.6740 cd         1 D90      -0.147200
      7 C4          -3.8040    -1.1210    -0.2350 ca         1 D90      -0.115800
      8 C5          -2.6430    -1.3500     0.4470 ca         1 D90      -0.035200
      9 C6          -4.7830    -2.1090    -0.4020 ca         1 D90      -0.038000
     10 C7          -2.3630    -2.5960     1.0200 ca         1 D90      -0.125000
     11 C8          -3.3260    -3.6200     0.8730 ca         1 D90      -0.073000
     12 C9          -4.5290    -3.3760     0.1650 ca         1 D90       0.087000
     13 C10          1.2490     6.2460    -0.0750 ca         1 D90      -0.104000
     14 C11          1.9300     5.0220     0.0200 ca         1 D90      -0.088000
     15 C13         -0.1490     6.2640    -0.1730 ca         1 D90      -0.100000
     16 C15         -0.8680     5.0590    -0.1820 ca         1 D90      -0.092000
     17 CC1          3.1580     2.1830     0.5370 c          1 D90       0.535600
     18 OC1          3.9380     2.9890     1.0420 o          1 D90      -0.530100
     19 CP1         -0.1940     3.8210    -0.0950 ca         1 D90      -0.060000
     20 NP1         -0.9090     2.5880    -0.0790 ns         1 D90      -0.168000
     21 CP2          1.2180     3.8020     0.0220 ca         1 D90      -0.069000
     22 NP2          1.8860     2.5430     0.0880 ns         1 D90      -0.172000
     23 CZ1          3.4610     0.7200     0.3590 cc         1 D90       0.354900
     24 NZ1          4.6100     0.1370     0.7210 nd         1 D90      -0.570000
     25 SZ1          2.2720    -0.3610    -0.3510 ss         1 D90      -0.019400
     26 CZ2          3.4050    -1.6580    -0.1390 cc         1 D90      -0.221300
     27 NZ2          4.4260    -3.8500    -0.5840 n3         1 D90      -0.712600
     28 CZ3          3.1450    -3.0970    -0.4980 c6         1 D90       0.244100
     29 CZ4          5.2750    -3.6290     0.6170 c6         1 D90       0.162800
     30 CZ5          5.7180    -2.1520     0.7150 c6         1 D90      -0.100700
     31 CZ6          4.5700    -1.2190     0.4370 cd         1 D90       0.291300
     32 CZ7          4.2080    -5.2850    -0.8700 c3         1 D90       0.151100
     33 HN1         -0.9760    -0.1150     0.9110 hn         1 D90       0.353000
     34 H3          -4.5060     0.7560    -1.2520 ha         1 D90       0.225000
     35 H6          -5.7020    -1.9100    -0.9480 ha         1 D90       0.136000
     36 H7          -1.4360    -2.7730     1.5620 ha         1 D90       0.122000
     37 H8          -3.1440    -4.6010     1.3050 ha         1 D90       0.130000
     38 H10          1.8060     7.1800    -0.0760 ha         1 D90       0.121000
     39 H11          3.0150     5.0410     0.0730 ha         1 D90       0.137000
     40 H13         -0.6770     7.2130    -0.2400 ha         1 D90       0.121000
     41 H15         -1.9520     5.1040    -0.2400 ha         1 D90       0.132000
     42 HNP1        -0.4280     1.8380     0.3950 hn         1 D90       0.154000
     43 HNP2         1.3440     1.7770    -0.2900 hn         1 D90       0.162000
     44 HZ3          2.4870    -3.5480     0.2610 h1         1 D90       0.049200
     45 HZ3A         2.6090    -3.1520    -1.4580 h1         1 D90       0.049200
     46 HZ4          4.7190    -3.9010     1.5270 h1         1 D90       0.039700
     47 HZ4A         6.1720    -4.2640     0.5830 h1         1 D90       0.039700
     48 HZ5          6.1470    -1.9590     1.7060 hc         1 D90       0.071200
     49 HZ5A         6.5180    -1.9690    -0.0140 hc         1 D90       0.071200
     50 HZ7          3.6280    -5.4120    -1.7940 h1         1 D90       0.034700
     51 HZ7A         5.1670    -5.8040    -1.0000 h1         1 D90       0.034700
     52 HZ7B         3.6620    -5.7710    -0.0510 h1         1 D90       0.034700
@<TRIPOS>BOND
     1     1     2 1   
     2     1     5 1   
     3     1     6 2   
     4     2     8 1   
     5     2    33 1   
     6     3     5 2   
     7     4    12 1   
     8     5    20 1   
     9     6     7 1   
    10     6    34 1   
    11     7     8 ar  
    12     7     9 ar  
    13     8    10 ar  
    14     9    12 ar  
    15     9    35 1   
    16    10    11 ar  
    17    10    36 1   
    18    11    12 ar  
    19    11    37 1   
    20    13    14 ar  
    21    13    15 ar  
    22    13    38 1   
    23    14    21 ar  
    24    14    39 1   
    25    15    16 ar  
    26    15    40 1   
    27    16    19 ar  
    28    16    41 1   
    29    17    18 2   
    30    17    22 1   
    31    17    23 1   
    32    19    20 1   
    33    19    21 ar  
    34    20    42 1   
    35    21    22 1   
    36    22    43 1   
    37    23    24 2   
    38    23    25 1   
    39    24    31 1   
    40    25    26 1   
    41    26    28 1   
    42    26    31 2   
    43    27    28 1   
    44    27    29 1   
    45    27    32 1   
    46    28    44 1   
    47    28    45 1   
    48    29    30 1   
    49    29    46 1   
    50    29    47 1   
    51    30    31 1   
    52    30    48 1   
    53    30    49 1   
    54    32    50 1   
    55    32    51 1   
    56    32    52 1   
@<TRIPOS>SUBSTRUCTURE
     1 D90         1 TEMP              0 ****  ****    0 ROOT
