@<TRIPOS>MOLECULE
D92
   58    62     1     0     0
SMALL
No Charge or Current Charge


@<TRIPOS>ATOM
      1 Cl1          5.7480     5.4790     4.1090 cl         1 D92      -0.211000
      2 C16          4.1680     4.8200     4.5100 ca         1 D92       0.089000
      3 C17          3.5530     5.1660     5.7370 ca         1 D92      -0.080000
      4 C18          2.2850     4.6410     6.0710 ca         1 D92      -0.121000
      5 C12          1.6670     3.7770     5.1570 ca         1 D92      -0.041200
      6 N11          0.4430     3.1420     5.2810 na         1 D92      -0.178700
      7 C15          3.5230     3.9460     3.6090 ca         1 D92      -0.046000
      8 C13          2.2660     3.4460     3.9740 ca         1 D92      -0.106800
      9 C14          1.3930     2.5430     3.2890 cc         1 D92      -0.200200
     10 C10          0.2790     2.3530     4.1120 cd         1 D92      -0.131300
     11 C9          -0.8700     1.4400     3.8500 c          1 D92       0.630300
     12 O19         -1.7910     1.2920     4.6430 o          1 D92      -0.610100
     13 N7          -0.8010     0.7450     2.6610 ns         1 D92      -0.491900
     14 C1          -1.6200    -0.4400     2.3280 c6         1 D92       0.082700
     15 C6          -2.1100    -0.3970     0.8560 c6         1 D92      -0.083400
     16 C5          -0.9670    -0.6450    -0.1590 c6         1 D92      -0.079400
     17 C4          -0.2520    -1.9820     0.1400 c6         1 D92      -0.075400
     18 C3           0.2820    -2.0090     1.5910 c6         1 D92      -0.086400
     19 C2          -0.8450    -1.7680     2.6340 c6         1 D92       0.092700
     20 N8          -0.2390    -1.6990     3.9700 ns         1 D92      -0.477900
     21 C20         -0.9060    -1.7980     5.1750 c          1 D92       0.536600
     22 O31         -2.0420    -2.2580     5.2490 o          1 D92      -0.586100
     23 C21         -0.1040    -1.2460     6.3180 cc         1 D92       0.342900
     24 S25         -0.8090    -1.1670     7.9150 ss         1 D92       0.120600
     25 C24          0.5990    -0.2770     8.4170 cc         1 D92      -0.299300
     26 C26          0.8310     0.2540     9.8070 c6         1 D92       0.246100
     27 N27          1.8560     1.3330     9.7750 n3         1 D92      -0.708600
     28 C30          1.3280     2.6380     9.3100 c3         1 D92       0.153100
     29 C28          3.0870     0.8890     9.0630 c6         1 D92       0.163800
     30 C29          2.8140     0.5800     7.5710 c6         1 D92      -0.141700
     31 C23          1.5120    -0.1580     7.3980 cd         1 D92       0.284300
     32 N22          1.1190    -0.7100     6.1940 nd         1 D92      -0.639000
     33 H17          4.0590     5.8390     6.4240 ha         1 D92       0.129000
     34 H18          1.8050     4.9010     7.0120 ha         1 D92       0.122000
     35 HN11        -0.2050     3.2070     6.0590 hn         1 D92       0.374000
     36 H15          3.9880     3.6700     2.6670 ha         1 D92       0.132000
     37 H14          1.5820     2.0700     2.3280 ha         1 D92       0.203000
     38 HN7         -0.0170     0.9630     2.0630 hn         1 D92       0.317500
     39 H1          -2.5140    -0.4220     2.9700 h1         1 D92       0.099700
     40 H61         -2.5910     0.5690     0.6500 hc         1 D92       0.057200
     41 H62         -2.8880    -1.1600     0.7150 hc         1 D92       0.057200
     42 H51         -0.2450     0.1820    -0.1240 hc         1 D92       0.041700
     43 H52         -1.3730    -0.6600    -1.1800 hc         1 D92       0.041700
     44 H41         -0.9470    -2.8200    -0.0170 hc         1 D92       0.047200
     45 H42          0.5770    -2.1280    -0.5660 hc         1 D92       0.047200
     46 H31          0.7630    -2.9770     1.7850 hc         1 D92       0.047700
     47 H32          1.0670    -1.2480     1.7010 hc         1 D92       0.047700
     48 H2          -1.5500    -2.6130     2.6010 h1         1 D92       0.086700
     49 HN8          0.6990    -1.3160     4.0420 hn         1 D92       0.330500
     50 H261        -0.1100     0.6220    10.2450 h1         1 D92       0.066200
     51 H262         1.1750    -0.5670    10.4550 h1         1 D92       0.066200
     52 H301         0.9560     2.5740     8.2790 h1         1 D92       0.031367
     53 H302         2.1120     3.4060     9.3460 h1         1 D92       0.031367
     54 H303         0.5010     2.9690     9.9510 h1         1 D92       0.031367
     55 H281         3.4790    -0.0210     9.5420 h1         1 D92       0.058200
     56 H282         3.8790     1.6490     9.1390 h1         1 D92       0.058200
     57 H291         3.6470    -0.0020     7.1570 hc         1 D92       0.066200
     58 H292         2.7800     1.5180     7.0020 hc         1 D92       0.066200
@<TRIPOS>BOND
     1     1     2 1   
     2     2     3 ar  
     3     2     7 ar  
     4     3     4 ar  
     5     3    33 1   
     6     4     5 ar  
     7     4    34 1   
     8     5     6 1   
     9     5     8 ar  
    10     6    10 1   
    11     6    35 1   
    12     7     8 ar  
    13     7    36 1   
    14     8     9 1   
    15     9    10 2   
    16     9    37 1   
    17    10    11 1   
    18    11    12 2   
    19    11    13 1   
    20    13    14 1   
    21    13    38 1   
    22    14    15 1   
    23    14    19 1   
    24    14    39 1   
    25    15    16 1   
    26    15    40 1   
    27    15    41 1   
    28    16    17 1   
    29    16    42 1   
    30    16    43 1   
    31    17    18 1   
    32    17    44 1   
    33    17    45 1   
    34    18    19 1   
    35    18    46 1   
    36    18    47 1   
    37    19    20 1   
    38    19    48 1   
    39    20    21 1   
    40    20    49 1   
    41    21    22 2   
    42    21    23 1   
    43    23    24 1   
    44    23    32 2   
    45    24    25 1   
    46    25    26 1   
    47    25    31 2   
    48    26    27 1   
    49    26    50 1   
    50    26    51 1   
    51    27    28 1   
    52    27    29 1   
    53    28    52 1   
    54    28    53 1   
    55    28    54 1   
    56    29    30 1   
    57    29    55 1   
    58    29    56 1   
    59    30    31 1   
    60    30    57 1   
    61    30    58 1   
    62    31    32 1   
@<TRIPOS>SUBSTRUCTURE
     1 D92         1 TEMP              0 ****  ****    0 ROOT
