@<TRIPOS>MOLECULE
D92
   58    62     1     0     0
SMALL
abcg2


@<TRIPOS>ATOM
      1 CL1          5.6880     5.6350     4.5050 cl         1 D92      -0.211000
      2 C16          4.1430     4.8710     4.7350 ca         1 D92       0.089000
      3 C17          3.4220     5.1720     5.9030 ca         1 D92      -0.080000
      4 C18          2.1920     4.5970     6.1320 ca         1 D92      -0.121000
      5 C12          1.6990     3.7130     5.1720 ca         1 D92      -0.041200
      6 N11          0.5420     3.0040     5.1340 na         1 D92      -0.178700
      7 C15          3.6720     4.0050     3.7770 ca         1 D92      -0.046000
      8 C13          2.4220     3.4090     3.9960 ca         1 D92      -0.106800
      9 C14          1.6370     2.4820     3.2570 cc         1 D92      -0.200200
     10 C10          0.4980     2.2610     3.9880 cd         1 D92      -0.131300
     11 C9          -0.6620     1.3730     3.7750 c          1 D92       0.630300
     12 O19         -1.5200     1.2780     4.6430 o          1 D92      -0.610100
     13 N7          -0.6890     0.7030     2.6070 ns         1 D92      -0.491900
     14 C1          -1.5800    -0.4160     2.3630 c6         1 D92       0.082700
     15 C6          -2.1450    -0.3950     0.9450 c6         1 D92      -0.083400
     16 C5          -1.0970    -0.7150    -0.1140 c6         1 D92      -0.079400
     17 C4          -0.4250    -2.0510     0.1790 c6         1 D92      -0.075400
     18 C3           0.1880    -2.0700     1.5750 c6         1 D92      -0.086400
     19 C2          -0.8460    -1.7480     2.6480 c6         1 D92       0.092700
     20 N8          -0.1920    -1.6930     3.9390 ns         1 D92      -0.477900
     21 C20         -0.8500    -1.7180     5.1080 c          1 D92       0.536600
     22 O31         -1.9850    -2.1350     5.2780 o          1 D92      -0.586100
     23 C21         -0.0750    -1.1550     6.2390 cc         1 D92       0.342900
     24 S25         -0.7620    -1.1050     7.8120 ss         1 D92       0.120600
     25 C24          0.6210    -0.2510     8.3550 cc         1 D92      -0.299300
     26 C26          0.8790     0.2620     9.7430 c6         1 D92       0.246100
     27 N27          1.8510     1.3370     9.7190 n3         1 D92      -0.708600
     28 C30          1.2820     2.5950     9.2790 c3         1 D92       0.153100
     29 C28          3.0340     0.9530     8.9650 c6         1 D92       0.163800
     30 C29          2.7710     0.6810     7.4780 c6         1 D92      -0.141700
     31 C23          1.4920    -0.0710     7.3180 cd         1 D92       0.284300
     32 N22          1.0810    -0.5840     6.1280 nd         1 D92      -0.639000
     33 H17          3.8360     5.8600     6.6270 ha         1 D92       0.129000
     34 H18          1.6360     4.8310     7.0310 ha         1 D92       0.122000
     35 HN11        -0.1810     2.9980     5.8360 hn         1 D92       0.374000
     36 H15          4.2440     3.7870     2.8850 ha         1 D92       0.132000
     37 H14          1.9000     2.0380     2.3100 ha         1 D92       0.203000
     38 HN7          0.0560     0.8630     1.9470 hn         1 D92       0.317500
     39 H1          -2.4050    -0.3220     3.0690 h1         1 D92       0.099700
     40 H61         -2.6130     0.5740     0.7590 hc         1 D92       0.057200
     41 H62         -2.9420    -1.1430     0.8930 hc         1 D92       0.057200
     42 H51         -0.3410     0.0770    -0.1640 hc         1 D92       0.041700
     43 H52         -1.5680    -0.7370    -1.0990 hc         1 D92       0.041700
     44 H41         -1.1650    -2.8540     0.0940 hc         1 D92       0.047200
     45 H42          0.3480    -2.2610    -0.5620 hc         1 D92       0.047200
     46 H31          0.6320    -3.0450     1.7860 hc         1 D92       0.047700
     47 H32          1.0080    -1.3430     1.6180 hc         1 D92       0.047700
     48 H2          -1.5960    -2.5440     2.6680 h1         1 D92       0.086700
     49 HN8          0.7300    -1.2790     3.9660 hn         1 D92       0.330500
     50 H261        -0.0410     0.6150    10.2120 h1         1 D92       0.066200
     51 H262         1.2550    -0.5530    10.3700 h1         1 D92       0.066200
     52 H301         0.8620     2.5750     8.2630 h1         1 D92       0.031367
     53 H302         2.0490     3.3710     9.3040 h1         1 D92       0.031367
     54 H303         0.4810     2.8950     9.9550 h1         1 D92       0.031367
     55 H281         3.4430     0.0510     9.4280 h1         1 D92       0.058200
     56 H282         3.7910     1.7330     9.0710 h1         1 D92       0.058200
     57 H291         3.6030     0.1150     7.0530 hc         1 D92       0.066200
     58 H292         2.7170     1.6120     6.9020 hc         1 D92       0.066200
@<TRIPOS>BOND
     1     1     2 1   
     2     2     3 ar  
     3     2     7 ar  
     4     3     4 ar  
     5     3    33 1   
     6     4     5 ar  
     7     4    34 1   
     8     5     6 1   
     9     5     8 ar  
    10     6    10 1   
    11     6    35 1   
    12     7     8 ar  
    13     7    36 1   
    14     8     9 1   
    15     9    10 2   
    16     9    37 1   
    17    10    11 1   
    18    11    12 2   
    19    11    13 1   
    20    13    14 1   
    21    13    38 1   
    22    14    15 1   
    23    14    19 1   
    24    14    39 1   
    25    15    16 1   
    26    15    40 1   
    27    15    41 1   
    28    16    17 1   
    29    16    42 1   
    30    16    43 1   
    31    17    18 1   
    32    17    44 1   
    33    17    45 1   
    34    18    19 1   
    35    18    46 1   
    36    18    47 1   
    37    19    20 1   
    38    19    48 1   
    39    20    21 1   
    40    20    49 1   
    41    21    22 2   
    42    21    23 1   
    43    23    24 1   
    44    23    32 2   
    45    24    25 1   
    46    25    26 1   
    47    25    31 2   
    48    26    27 1   
    49    26    50 1   
    50    26    51 1   
    51    27    28 1   
    52    27    29 1   
    53    28    52 1   
    54    28    53 1   
    55    28    54 1   
    56    29    30 1   
    57    29    55 1   
    58    29    56 1   
    59    30    31 1   
    60    30    57 1   
    61    30    58 1   
    62    31    32 1   
@<TRIPOS>SUBSTRUCTURE
     1 D92         1 TEMP              0 ****  ****    0 ROOT
