@<TRIPOS>MOLECULE
D93
   58    62     1     0     0
SMALL
bcc


@<TRIPOS>ATOM
      1 CL1         -2.8220     6.3200     5.7890 cl         1 D93      -0.120400
      2 C16         -1.5630     6.1650     4.5990 ca         1 D93      -0.001600
      3 C17         -0.7310     7.2740     4.3660 ca         1 D93      -0.098000
      4 C18          0.2830     7.2030     3.4370 ca         1 D93      -0.133000
      5 C12          0.4480     6.0020     2.7470 ca         1 D93      -0.039200
      6 N11          1.3490     5.6470     1.7950 na         1 D93      -0.129400
      7 C15         -1.4160     4.9750     3.9260 ca         1 D93      -0.065000
      8 C13         -0.3910     4.8880     2.9760 ca         1 D93      -0.107800
      9 C14          0.0540     3.8520     2.1080 cc         1 D93      -0.155200
     10 C10          1.1160     4.3600     1.4030 cd         1 D93      -0.135300
     11 C9           2.0020     3.7600     0.3840 c          1 D93       0.691300
     12 O19          3.0280     4.3340     0.0430 o          1 D93      -0.597100
     13 N7           1.6000     2.5820    -0.1180 ns         1 D93      -0.561900
     14 C1           2.3490     1.8480    -1.1210 c6         1 D93       0.099700
     15 C6           1.4060     0.9530    -1.9230 c6         1 D93      -0.093400
     16 C5           0.8420    -0.2030    -1.0970 c6         1 D93      -0.076400
     17 C4           1.9450    -1.0130    -0.4250 c6         1 D93      -0.079400
     18 C3           2.8840    -0.1180     0.3800 c6         1 D93      -0.088400
     19 C2           3.4690     1.0150    -0.4570 c6         1 D93       0.104700
     20 N8           4.3520     0.4770    -1.4730 ns         1 D93      -0.551900
     21 C20          5.3800     1.1450    -2.0070 c          1 D93       0.592600
     22 O31          5.7610     2.2570    -1.6750 o          1 D93      -0.585100
     23 C21          6.0750     0.4130    -3.0940 cc         1 D93       0.334900
     24 S25          7.4360     1.1330    -3.8590 ss         1 D93      -0.029300
     25 C24          7.5550    -0.2420    -4.8720 cc         1 D93      -0.214700
     26 C26          8.5770    -0.4850    -5.9470 c6         1 D93       0.247100
     27 N27          8.1230    -1.5000    -6.8750 n3         1 D93      -0.711600
     28 C30          7.1730    -0.9980    -7.8480 c3         1 D93       0.151100
     29 C28          7.6480    -2.6790    -6.1680 c6         1 D93       0.164800
     30 C29          6.4120    -2.4280    -5.2930 c6         1 D93      -0.138700
     31 C23          6.5700    -1.1380    -4.5590 cd         1 D93       0.345600
     32 N22          5.7390    -0.7490    -3.5550 nd         1 D93      -0.637000
     33 H17         -0.8880     8.1880     4.9220 ha         1 D93       0.147000
     34 H18          0.9260     8.0540     3.2560 ha         1 D93       0.141000
     35 HN11         2.0770     6.2320     1.4170 hn         1 D93       0.323700
     36 H15         -2.0690     4.1350     4.1230 ha         1 D93       0.149000
     37 H14         -0.3570     2.8570     2.0410 ha         1 D93       0.153000
     38 HN7          0.6990     2.2240     0.1540 hn         1 D93       0.320500
     39 H1           2.8130     2.5760    -1.7890 h1         1 D93       0.087700
     40 H61          1.9580     0.5570    -2.7790 hc         1 D93       0.054700
     41 H62          0.5980     1.5590    -2.3380 hc         1 D93       0.054700
     42 H51          0.2370    -0.8460    -1.7390 hc         1 D93       0.039700
     43 H52          0.1570     0.1740    -0.3300 hc         1 D93       0.039700
     44 H41          1.5070    -1.7660     0.2330 hc         1 D93       0.043700
     45 H42          2.5040    -1.5780    -1.1800 hc         1 D93       0.043700
     46 H31          2.3350     0.3250     1.2160 hc         1 D93       0.054700
     47 H32          3.6950    -0.7010     0.8210 hc         1 D93       0.054700
     48 H2           4.0610     1.6740     0.1800 h1         1 D93       0.093700
     49 HN8          4.1550    -0.4340    -1.8620 hn         1 D93       0.338500
     50 H261         8.8020     0.4330    -6.4920 h1         1 D93       0.066200
     51 H262         9.5150    -0.8100    -5.4850 h1         1 D93       0.066200
     52 H301         7.6330    -0.2000    -8.4320 h1         1 D93       0.034367
     53 H302         6.2400    -0.6030    -7.4230 h1         1 D93       0.034367
     54 H303         6.9070    -1.7990    -8.5400 h1         1 D93       0.034367
     55 H281         8.4650    -3.0440    -5.5390 h1         1 D93       0.057700
     56 H282         7.4360    -3.4650    -6.8950 h1         1 D93       0.057700
     57 H291         6.2850    -3.2530    -4.5890 hc         1 D93       0.062700
     58 H292         5.5000    -2.3970    -5.8970 hc         1 D93       0.062700
@<TRIPOS>BOND
     1     1     2 1   
     2     2     3 ar  
     3     2     7 ar  
     4     3     4 ar  
     5     3    33 1   
     6     4     5 ar  
     7     4    34 1   
     8     5     6 1   
     9     5     8 ar  
    10     6    10 1   
    11     6    35 1   
    12     7     8 ar  
    13     7    36 1   
    14     8     9 1   
    15     9    10 2   
    16     9    37 1   
    17    10    11 1   
    18    11    12 2   
    19    11    13 1   
    20    13    14 1   
    21    13    38 1   
    22    14    15 1   
    23    14    19 1   
    24    14    39 1   
    25    15    16 1   
    26    15    40 1   
    27    15    41 1   
    28    16    17 1   
    29    16    42 1   
    30    16    43 1   
    31    17    18 1   
    32    17    44 1   
    33    17    45 1   
    34    18    19 1   
    35    18    46 1   
    36    18    47 1   
    37    19    20 1   
    38    19    48 1   
    39    20    21 1   
    40    20    49 1   
    41    21    22 2   
    42    21    23 1   
    43    23    24 1   
    44    23    32 2   
    45    24    25 1   
    46    25    26 1   
    47    25    31 2   
    48    26    27 1   
    49    26    50 1   
    50    26    51 1   
    51    27    28 1   
    52    27    29 1   
    53    28    52 1   
    54    28    53 1   
    55    28    54 1   
    56    29    30 1   
    57    29    55 1   
    58    29    56 1   
    59    30    31 1   
    60    30    57 1   
    61    30    58 1   
    62    31    32 1   
@<TRIPOS>SUBSTRUCTURE
     1 D93         1 TEMP              0 ****  ****    0 ROOT
