@<TRIPOS>MOLECULE
D93
   58    62     1     0     0
SMALL
No Charge or Current Charge


@<TRIPOS>ATOM
      1 Cl1         -3.4790     5.7110     5.5350 cl         1 D93      -0.212000
      2 C16         -1.9890     5.7850     4.6020 ca         1 D93       0.090000
      3 C17         -1.0720     6.8390     4.8250 ca         1 D93      -0.080000
      4 C18          0.1280     6.9090     4.0830 ca         1 D93      -0.115000
      5 C12          0.3730     5.9090     3.1300 ca         1 D93      -0.039200
      6 N11          1.4730     5.7800     2.2970 na         1 D93      -0.179700
      7 C15         -1.7160     4.7930     3.6380 ca         1 D93      -0.047000
      8 C13         -0.5160     4.8940     2.9200 ca         1 D93      -0.107800
      9 C14          0.0260     4.0550     1.8970 cc         1 D93      -0.205200
     10 C10          1.2530     4.6110     1.5200 cd         1 D93      -0.135300
     11 C9           2.1820     4.0740     0.4810 c          1 D93       0.624300
     12 O19          3.2470     4.6020     0.1970 o          1 D93      -0.597100
     13 N7           1.7420     2.9250    -0.1340 ns         1 D93      -0.494900
     14 C1           2.4620     2.1760    -1.1780 c6         1 D93       0.099700
     15 C6           1.4650     1.2770    -1.9640 c6         1 D93      -0.093400
     16 C5           0.8880     0.1330    -1.0880 c6         1 D93      -0.076400
     17 C4           2.0170    -0.7150    -0.4560 c6         1 D93      -0.079400
     18 C3           3.0260     0.1750     0.3180 c6         1 D93      -0.088400
     19 C2           3.6130     1.3090    -0.5700 c6         1 D93       0.104700
     20 N8           4.4640     0.7280    -1.6230 ns         1 D93      -0.484900
     21 C20          5.4490     1.3870    -2.3350 c          1 D93       0.525600
     22 O31          5.7100     2.5670    -2.1220 o          1 D93      -0.585100
     23 C21          6.1290     0.5220    -3.3560 cc         1 D93       0.334900
     24 S25          7.3980     1.2040    -4.3460 ss         1 D93       0.115600
     25 C24          7.5350    -0.3450    -5.1220 cc         1 D93      -0.294300
     26 C26          8.5280    -0.6760    -6.2060 c6         1 D93       0.247100
     27 N27          8.0780    -1.8780    -6.9590 n3         1 D93      -0.711600
     28 C30          7.0200    -1.5900    -7.9570 c3         1 D93       0.151100
     29 C28          7.7540    -3.0040    -6.0380 c6         1 D93       0.164800
     30 C29          6.5610    -2.6680    -5.1090 c6         1 D93      -0.138700
     31 C23          6.6510    -1.2550    -4.5950 cd         1 D93       0.280300
     32 N22          5.8380    -0.7670    -3.5870 nd         1 D93      -0.637000
     33 H17         -1.2920     7.5980     5.5710 ha         1 D93       0.129000
     34 H18          0.8390     7.7150     4.2470 ha         1 D93       0.123000
     35 HN11         2.2790     6.3950     2.2470 hn         1 D93       0.374000
     36 H15         -2.4130     3.9780     3.4580 ha         1 D93       0.131000
     37 H14         -0.4350     3.1560     1.4950 ha         1 D93       0.203000
     38 HN7          0.8460     2.5730     0.1700 hn         1 D93       0.320500
     39 H1           2.9000     2.9080    -1.8740 h1         1 D93       0.087700
     40 H61          1.9690     0.8470    -2.8400 hc         1 D93       0.054700
     41 H62          0.6440     1.8910    -2.3610 hc         1 D93       0.054700
     42 H51          0.2390    -0.5100    -1.6990 hc         1 D93       0.039700
     43 H52          0.2490     0.5480    -0.2960 hc         1 D93       0.039700
     44 H41          1.5830    -1.4610     0.2240 hc         1 D93       0.043700
     45 H42          2.5380    -1.2820    -1.2400 hc         1 D93       0.043700
     46 H31          2.5280     0.6140     1.1940 hc         1 D93       0.054700
     47 H32          3.8400    -0.4450     0.7160 hc         1 D93       0.054700
     48 H2           4.2480     1.9540     0.0570 h1         1 D93       0.093700
     49 HN8          4.3270    -0.2460    -1.8740 hn         1 D93       0.338500
     50 H261         8.6640     0.1810    -6.8830 h1         1 D93       0.066200
     51 H262         9.5100    -0.8700    -5.7490 h1         1 D93       0.066200
     52 H301         7.3670    -0.8410    -8.6810 h1         1 D93       0.034367
     53 H302         6.1110    -1.2020    -7.4780 h1         1 D93       0.034367
     54 H303         6.7550    -2.4980    -8.5130 h1         1 D93       0.034367
     55 H281         8.6310    -3.2280    -5.4120 h1         1 D93       0.057700
     56 H282         7.5300    -3.9210    -6.6030 h1         1 D93       0.057700
     57 H291         6.5310    -3.3820    -4.2760 hc         1 D93       0.062700
     58 H292         5.6200    -2.7980    -5.6590 hc         1 D93       0.062700
@<TRIPOS>BOND
     1     1     2 1   
     2     2     3 ar  
     3     2     7 ar  
     4     3     4 ar  
     5     3    33 1   
     6     4     5 ar  
     7     4    34 1   
     8     5     6 1   
     9     5     8 ar  
    10     6    10 1   
    11     6    35 1   
    12     7     8 ar  
    13     7    36 1   
    14     8     9 1   
    15     9    10 2   
    16     9    37 1   
    17    10    11 1   
    18    11    12 2   
    19    11    13 1   
    20    13    14 1   
    21    13    38 1   
    22    14    15 1   
    23    14    19 1   
    24    14    39 1   
    25    15    16 1   
    26    15    40 1   
    27    15    41 1   
    28    16    17 1   
    29    16    42 1   
    30    16    43 1   
    31    17    18 1   
    32    17    44 1   
    33    17    45 1   
    34    18    19 1   
    35    18    46 1   
    36    18    47 1   
    37    19    20 1   
    38    19    48 1   
    39    20    21 1   
    40    20    49 1   
    41    21    22 2   
    42    21    23 1   
    43    23    24 1   
    44    23    32 2   
    45    24    25 1   
    46    25    26 1   
    47    25    31 2   
    48    26    27 1   
    49    26    50 1   
    50    26    51 1   
    51    27    28 1   
    52    27    29 1   
    53    28    52 1   
    54    28    53 1   
    55    28    54 1   
    56    29    30 1   
    57    29    55 1   
    58    29    56 1   
    59    30    31 1   
    60    30    57 1   
    61    30    58 1   
    62    31    32 1   
@<TRIPOS>SUBSTRUCTURE
     1 D93         1 TEMP              0 ****  ****    0 ROOT
