@<TRIPOS>MOLECULE
D94
   68    74     1     0     0
SMALL
abcg2


@<TRIPOS>ATOM
      1 N5           2.0640     3.2780    -0.8760 nv         1 D94      -1.052900
      2 C3           0.8360     3.5710    -0.3990 cc         1 D94       0.670900
      3 C4          -0.1040     2.5130    -0.1420 cc         1 D94      -0.226000
      4 N2          -1.3810     2.8900     0.2430 na         1 D94       0.094200
      5 C2          -1.6910     4.2150     0.4860 cc         1 D94      -0.230000
      6 C1          -0.7110     5.1190     0.2930 cd         1 D94       0.360900
      7 N1           0.5360     4.8220    -0.1650 nd         1 D94      -0.781000
      8 C5          -2.1360     1.7700     0.3290 cc         1 D94       0.366800
      9 C22         -3.5750     1.7390     0.6730 cy         1 D94      -0.090000
     10 C23         -4.0710     0.5860     1.5710 cy         1 D94      -0.078400
     11 C24         -5.3230     0.4870     0.6850 cy         1 D94       0.161500
     12 N6          -5.7940    -0.8340     0.3630 n3         1 D94      -0.708600
     13 C26         -6.8230    -0.8030    -0.6590 c6         1 D94       0.166800
     14 C27         -7.2440    -2.2130    -1.0270 c6         1 D94       0.162800
     15 N7          -7.7230    -2.9250     0.1410 n3         1 D94      -0.716600
     16 C30         -8.1650    -4.2580    -0.1950 c3         1 D94       0.152100
     17 C28         -6.7000    -2.9450     1.1680 c6         1 D94       0.162800
     18 C29         -6.2800    -1.5350     1.5360 c6         1 D94       0.166800
     19 C25         -4.5590     1.2420    -0.4150 cy         1 D94      -0.078400
     20 N3          -1.4140     0.7130     0.0300 nd         1 D94      -0.552300
     21 C6          -0.1580     1.1290    -0.2470 cd         1 D94       0.101400
     22 C7           0.8790     0.1460    -0.5650 ca         1 D94      -0.003800
     23 C8           2.1600     0.2470    -0.0740 ca         1 D94      -0.090000
     24 C12          3.1350    -0.7280    -0.3820 ca         1 D94       0.274000
     25 C11          2.7750    -1.8350    -1.1870 ca         1 D94      -0.082000
     26 C9           1.4490    -1.9380    -1.6620 ca         1 D94      -0.099000
     27 C10          0.5270    -0.9780    -1.3580 ca         1 D94      -0.078000
     28 N4           4.3790    -0.5750     0.1210 nb         1 D94      -0.669000
     29 C13          5.2980    -1.4710    -0.1470 cp         1 D94       0.424500
     30 C14          5.0330    -2.6050    -0.9590 ca         1 D94      -0.154000
     31 C15          3.7800    -2.7810    -1.4700 ca         1 D94      -0.063000
     32 C16          6.6450    -1.2460     0.4210 cp         1 D94      -0.152500
     33 C17          7.0560     0.0480     0.7500 ca         1 D94      -0.080500
     34 C18          8.3160     0.2750     1.2790 ca         1 D94      -0.119000
     35 C19          9.1850    -0.7870     1.5000 ca         1 D94      -0.098000
     36 C20          8.7830    -2.0780     1.1850 ca         1 D94      -0.119000
     37 C21          7.5250    -2.3050     0.6470 ca         1 D94      -0.080500
     38 HN5          2.6160     4.0560    -1.1990 hn         1 D94       0.491000
     39 HN5A         2.2160     2.4120    -1.3650 hn         1 D94       0.491000
     40 H2          -2.6880     4.4570     0.8150 h4         1 D94       0.153000
     41 H1          -0.9150     6.1640     0.4860 h4         1 D94       0.029100
     42 H22         -3.9040     2.7000     1.0710 hc         1 D94       0.058700
     43 H23         -3.4430    -0.2980     1.4510 hc         1 D94       0.067950
     44 H23A        -4.1990     0.8000     2.6320 hc         1 D94       0.067950
     45 H24         -6.1280     1.1230     1.0920 h1         1 D94       0.026700
     46 H26         -7.7090    -0.2340    -0.3270 h1         1 D94       0.038200
     47 H26A        -6.4350    -0.3040    -1.5500 h1         1 D94       0.038200
     48 H27         -8.0430    -2.1660    -1.7720 h1         1 D94       0.037950
     49 H27A        -6.3910    -2.7320    -1.4980 h1         1 D94       0.037950
     50 H30         -7.3640    -4.8890    -0.6110 h1         1 D94       0.030033
     51 H30A        -8.5550    -4.7600     0.6920 h1         1 D94       0.030033
     52 H30B        -8.9690    -4.2130    -0.9320 h1         1 D94       0.030033
     53 H28         -7.0930    -3.4470     2.0550 h1         1 D94       0.037950
     54 H28A        -5.8090    -3.5110     0.8420 h1         1 D94       0.037950
     55 H29         -5.4860    -1.5850     2.2850 h1         1 D94       0.038200
     56 H29A        -7.1330    -1.0090     1.9980 h1         1 D94       0.038200
     57 H25         -5.0900     1.9960    -0.9960 hc         1 D94       0.067950
     58 H25A        -4.0640     0.5430    -1.0920 hc         1 D94       0.067950
     59 H8           2.4480     1.0630     0.5760 ha         1 D94       0.142000
     60 H9           1.1710    -2.7880    -2.2740 ha         1 D94       0.117000
     61 H10         -0.4860    -1.0630    -1.7290 ha         1 D94       0.133000
     62 H14          5.8170    -3.3120    -1.1900 ha         1 D94       0.125000
     63 H15          3.5540    -3.6350    -2.0960 ha         1 D94       0.119000
     64 H17          6.3830     0.8780     0.5810 ha         1 D94       0.121000
     65 H18          8.6230     1.2850     1.5180 ha         1 D94       0.113500
     66 H19         10.1670    -0.6080     1.9170 ha         1 D94       0.113000
     67 H20          9.4470    -2.9130     1.3630 ha         1 D94       0.113500
     68 H21          7.2270    -3.3220     0.4270 ha         1 D94       0.121000
@<TRIPOS>BOND
     1     1     2 1   
     2     1    38 1   
     3     1    39 1   
     4     2     3 1   
     5     2     7 2   
     6     3     4 1   
     7     3    21 2   
     8     4     5 1   
     9     4     8 1   
    10     5     6 2   
    11     5    40 1   
    12     6     7 1   
    13     6    41 1   
    14     8     9 1   
    15     8    20 2   
    16     9    10 1   
    17     9    19 1   
    18     9    42 1   
    19    10    11 1   
    20    10    43 1   
    21    10    44 1   
    22    11    12 1   
    23    11    19 1   
    24    11    45 1   
    25    12    13 1   
    26    12    18 1   
    27    13    14 1   
    28    13    46 1   
    29    13    47 1   
    30    14    15 1   
    31    14    48 1   
    32    14    49 1   
    33    15    16 1   
    34    15    17 1   
    35    16    50 1   
    36    16    51 1   
    37    16    52 1   
    38    17    18 1   
    39    17    53 1   
    40    17    54 1   
    41    18    55 1   
    42    18    56 1   
    43    19    57 1   
    44    19    58 1   
    45    20    21 1   
    46    21    22 1   
    47    22    23 ar  
    48    22    27 ar  
    49    23    24 ar  
    50    23    59 1   
    51    24    25 ar  
    52    24    28 ar  
    53    25    26 ar  
    54    25    31 ar  
    55    26    27 ar  
    56    26    60 1   
    57    27    61 1   
    58    28    29 ar  
    59    29    30 ar  
    60    29    32 1   
    61    30    31 ar  
    62    30    62 1   
    63    31    63 1   
    64    32    33 ar  
    65    32    37 ar  
    66    33    34 ar  
    67    33    64 1   
    68    34    35 ar  
    69    34    65 1   
    70    35    36 ar  
    71    35    66 1   
    72    36    37 ar  
    73    36    67 1   
    74    37    68 1   
@<TRIPOS>SUBSTRUCTURE
     1 D94         1 TEMP              0 ****  ****    0 ROOT
