@<TRIPOS>MOLECULE
D94
   68    74     1     0     0
SMALL
No Charge or Current Charge


@<TRIPOS>ATOM
      1 N5           2.1430     3.2970     0.2510 nv         1 D94      -1.052900
      2 C3           0.8660     3.2020     0.5860 cc         1 D94       0.670900
      3 C4           0.0110     2.2190     0.0540 cc         1 D94      -0.226000
      4 N2          -1.2950     2.3170     0.2900 na         1 D94       0.094200
      5 C2          -1.8240     3.3440     1.0640 cc         1 D94      -0.230000
      6 C1          -0.8910     4.2400     1.6070 cd         1 D94       0.360900
      7 N1           0.4960     4.1910     1.3470 nd         1 D94      -0.781000
      8 C5          -2.0210     1.3910    -0.4150 cc         1 D94       0.366800
      9 C22         -3.5110     1.1970    -0.4610 cy         1 D94      -0.090000
     10 C23         -4.3120     0.7650     0.8180 cy         1 D94      -0.078400
     11 C24         -5.3730     0.1850    -0.1740 cy         1 D94       0.161500
     12 N6          -6.1370    -0.9990     0.2750 n3         1 D94      -0.708600
     13 C26         -6.8940    -1.6440    -0.8430 c6         1 D94       0.166800
     14 C27         -7.6990    -2.8970    -0.3690 c6         1 D94       0.162800
     15 N7          -8.6280    -2.5820     0.7590 n3         1 D94      -0.716600
     16 C30         -9.4100    -3.7550     1.2020 c3         1 D94       0.152100
     17 C28         -7.8760    -1.9310     1.8760 c6         1 D94       0.162800
     18 C29         -7.0710    -0.6790     1.4000 c6         1 D94       0.166800
     19 C25         -4.1600    -0.0700    -1.1270 cy         1 D94      -0.078400
     20 N3          -1.1430     0.6360    -1.0770 nd         1 D94      -0.552300
     21 C6           0.1350     1.1300    -0.7900 cd         1 D94       0.101400
     22 C7           1.3370     0.3920    -1.2480 ca         1 D94      -0.003800
     23 C8           2.5200     0.3350    -0.4780 ca         1 D94      -0.090000
     24 C12          3.6360    -0.4170    -0.8900 ca         1 D94       0.274000
     25 C11          3.5520    -1.1520    -2.0960 ca         1 D94      -0.082000
     26 C9           2.3670    -1.1460    -2.8500 ca         1 D94      -0.099000
     27 C10          1.2630    -0.3950    -2.4170 ca         1 D94      -0.078000
     28 N4           4.7540    -0.4300    -0.1280 nb         1 D94      -0.669000
     29 C13          5.8320    -1.1530    -0.5140 cp         1 D94       0.424500
     30 C14          5.8110    -1.8970    -1.7210 ca         1 D94      -0.154000
     31 C15          4.6600    -1.9020    -2.5210 ca         1 D94      -0.063000
     32 C16          7.0380    -1.1110     0.3900 cp         1 D94      -0.152500
     33 C17          7.2460    -0.0330     1.2960 ca         1 D94      -0.080500
     34 C18          8.3700     0.0090     2.1380 ca         1 D94      -0.119000
     35 C19          9.3170    -1.0260     2.1010 ca         1 D94      -0.098000
     36 C20          9.1350    -2.1040     1.2220 ca         1 D94      -0.119000
     37 C21          8.0110    -2.1480     0.3790 ca         1 D94      -0.080500
     38 HN5          2.5420     4.1950     0.4900 hn         1 D94       0.491000
     39 HN5A         2.3930     2.9350    -0.6600 hn         1 D94       0.491000
     40 H2          -2.8920     3.3890     1.2190 h4         1 D94       0.153000
     41 H1          -1.2130     5.0570     2.2410 h4         1 D94       0.029100
     42 H22         -3.8810     2.1340    -0.8970 hc         1 D94       0.058700
     43 H23         -3.8090     0.0130     1.4390 hc         1 D94       0.067950
     44 H23A        -4.6610     1.5750     1.4660 hc         1 D94       0.067950
     45 H24         -6.0410     0.9660    -0.5610 h1         1 D94       0.026700
     46 H26         -7.5970    -0.9250    -1.2880 h1         1 D94       0.038200
     47 H26A        -6.2050    -1.9560    -1.6420 h1         1 D94       0.038200
     48 H27         -8.2610    -3.2970    -1.2250 h1         1 D94       0.037950
     49 H27A        -6.9840    -3.6750    -0.0630 h1         1 D94       0.037950
     50 H30         -8.7500    -4.5420     1.5930 h1         1 D94       0.030033
     51 H30A       -10.1160    -3.4730     1.9950 h1         1 D94       0.030033
     52 H30B        -9.9880    -4.1740     0.3670 h1         1 D94       0.030033
     53 H28         -8.5690    -1.6210     2.6710 h1         1 D94       0.037950
     54 H28A        -7.1730    -2.6480     2.3250 h1         1 D94       0.037950
     55 H29         -6.5130    -0.2780     2.2580 h1         1 D94       0.038200
     56 H29A        -7.7850     0.0980     1.0890 h1         1 D94       0.038200
     57 H25         -4.3700     0.0070    -2.1990 hc         1 D94       0.067950
     58 H25A        -3.6260    -1.0090    -0.9420 hc         1 D94       0.067950
     59 H8           2.5710     0.8320     0.4830 ha         1 D94       0.142000
     60 H9           2.2960    -1.7270    -3.7680 ha         1 D94       0.117000
     61 H10          0.3510    -0.4070    -3.0100 ha         1 D94       0.133000
     62 H14          6.6840    -2.4560    -2.0410 ha         1 D94       0.125000
     63 H15          4.6310    -2.4750    -3.4460 ha         1 D94       0.119000
     64 H17          6.5320     0.7870     1.3430 ha         1 D94       0.121000
     65 H18          8.5070     0.8460     2.8190 ha         1 D94       0.113500
     66 H19         10.1870    -0.9930     2.7530 ha         1 D94       0.113000
     67 H20          9.8640    -2.9110     1.1960 ha         1 D94       0.113500
     68 H21          7.8940    -3.0080    -0.2760 ha         1 D94       0.121000
@<TRIPOS>BOND
     1     1     2 1   
     2     1    38 1   
     3     1    39 1   
     4     2     3 1   
     5     2     7 2   
     6     3     4 1   
     7     3    21 2   
     8     4     5 1   
     9     4     8 1   
    10     5     6 2   
    11     5    40 1   
    12     6     7 1   
    13     6    41 1   
    14     8     9 1   
    15     8    20 2   
    16     9    10 1   
    17     9    19 1   
    18     9    42 1   
    19    10    11 1   
    20    10    43 1   
    21    10    44 1   
    22    11    12 1   
    23    11    19 1   
    24    11    45 1   
    25    12    13 1   
    26    12    18 1   
    27    13    14 1   
    28    13    46 1   
    29    13    47 1   
    30    14    15 1   
    31    14    48 1   
    32    14    49 1   
    33    15    16 1   
    34    15    17 1   
    35    16    50 1   
    36    16    51 1   
    37    16    52 1   
    38    17    18 1   
    39    17    53 1   
    40    17    54 1   
    41    18    55 1   
    42    18    56 1   
    43    19    57 1   
    44    19    58 1   
    45    20    21 1   
    46    21    22 1   
    47    22    23 ar  
    48    22    27 ar  
    49    23    24 ar  
    50    23    59 1   
    51    24    25 ar  
    52    24    28 ar  
    53    25    26 ar  
    54    25    31 ar  
    55    26    27 ar  
    56    26    60 1   
    57    27    61 1   
    58    28    29 ar  
    59    29    30 ar  
    60    29    32 1   
    61    30    31 ar  
    62    30    62 1   
    63    31    63 1   
    64    32    33 ar  
    65    32    37 ar  
    66    33    34 ar  
    67    33    64 1   
    68    34    35 ar  
    69    34    65 1   
    70    35    36 ar  
    71    35    66 1   
    72    36    37 ar  
    73    36    67 1   
    74    37    68 1   
@<TRIPOS>SUBSTRUCTURE
     1 D94         1 TEMP              0 ****  ****    0 ROOT
