@<TRIPOS>MOLECULE
D95
   54    57     1     0     0
SMALL
No Charge or Current Charge


@<TRIPOS>ATOM
      1 CAA         30.4080    30.7820   216.1990 c3         1 D95      -0.085100
      2 CAB         29.1150    30.8750   217.0650 c6         1 D95      -0.058700
      3 CAC         27.9710    31.4720   216.2170 c6         1 D95      -0.073400
      4 CAD         26.6580    31.5220   217.0130 c6         1 D95      -0.074400
      5 CAE         26.8150    32.3900   218.2980 c6         1 D95      -0.053700
      6 CAF         25.4800    32.4780   219.1150 c6         1 D95      -0.093700
      7 CAG         25.1670    31.1110   219.7850 c6         1 D95       0.407300
      8 CAI         27.5120    30.5520   219.9560 c6         1 D95       0.407300
      9 CAJ         27.9810    31.8740   219.2230 c6         1 D95       0.090000
     10 CAK         29.3200    31.6860   218.3920 c6         1 D95      -0.061700
     11 CAL         30.4950    31.0580   219.2200 c3         1 D95      -0.064400
     12 CAM         30.5420    31.4190   220.7420 c3         1 D95      -0.103400
     13 CAN         29.2200    31.1740   221.5750 c6         1 D95       0.353000
     14 CAR         29.5190    30.7680   223.0350 c3         1 D95      -0.085100
     15 CAV         22.0890    30.3900   221.8240 c3         1 D95      -0.092400
     16 CAW         22.2330    30.1200   223.3490 c3         1 D95      -0.205400
     17 CAX         23.1820    31.1380   224.0010 c          1 D95       0.708000
     18 CBA         24.2800    33.0280   218.2850 c3         1 D95      -0.076100
     19 OAH         26.2580    30.7520   220.6410 os         1 D95      -0.446000
     20 OAO         28.4750    30.1120   220.9380 os         1 D95      -0.439000
     21 OAP         28.4640    32.4040   221.5950 os         1 D95      -0.206000
     22 OAQ         28.2160    32.9330   220.2020 os         1 D95      -0.245000
     23 OAS         23.9820    31.2110   220.5790 os         1 D95      -0.442100
     24 OAU         23.7440    28.9390   220.7710 o          1 D95      -0.495000
     25 OAY         22.7140    32.2020   224.3750 o          1 D95      -0.733000
     26 OAZ         24.3630    30.8450   224.0910 o          1 D95      -0.733000
     27 HAA         31.1980    30.2110   216.6990 hc         1 D95       0.031033
     28 HAB         30.2090    30.2760   215.2470 hc         1 D95       0.031033
     29 HAC         30.8050    31.7780   215.9680 hc         1 D95       0.031033
     30 HAD         28.8490    29.8390   217.3210 hc         1 D95       0.052700
     31 HAF         27.8210    30.8700   215.3100 hc         1 D95       0.037200
     32 HAE         28.2400    32.4830   215.8780 hc         1 D95       0.037200
     33 HAG         25.8810    31.9420   216.3620 hc         1 D95       0.047200
     34 HAH         26.3400    30.5000   217.2550 hc         1 D95       0.047200
     35 HAI         27.0740    33.4080   217.9710 hc         1 D95       0.056700
     36 HAJ         25.6240    33.2080   219.9230 hc         1 D95       0.095700
     37 HAK         25.0230    30.3420   219.0120 h2         1 D95       0.041700
     38 HAL         27.3810    29.7500   219.2140 h2         1 D95       0.067700
     39 HAM         29.6630    32.6930   218.1150 hc         1 D95       0.053700
     40 HAN         30.4510    29.9640   219.1490 hc         1 D95       0.043700
     41 HAO         31.4570    31.3440   218.7770 hc         1 D95       0.043700
     42 HAQ         31.3610    30.8410   221.1870 hc         1 D95       0.054200
     43 HAP         30.8460    32.4680   220.8420 hc         1 D95       0.054200
     44 HAR         28.5900    30.6370   223.6020 hc         1 D95       0.063033
     45 HAT         30.0730    29.8230   223.0770 hc         1 D95       0.063033
     46 HAS         30.1190    31.5320   223.5420 hc         1 D95       0.063033
     47 HAV         21.8140    31.4430   221.6840 hc         1 D95       0.042700
     48 HAW         21.2850    29.7490   221.4430 hc         1 D95       0.042700
     49 HAY         21.2220    30.2430   223.7540 hc         1 D95       0.032200
     50 HAX         22.6240    29.1000   223.4490 hc         1 D95       0.032200
     51 HBB         23.4330    33.2800   218.9340 hc         1 D95       0.033700
     52 HBA         24.5580    33.9420   217.7450 hc         1 D95       0.033700
     53 HBC         23.9210    32.2970   217.5510 hc         1 D95       0.033700
     54 CAT         23.3670    30.0760   221.0250 c          1 D95       0.637100
@<TRIPOS>BOND
     1     1     2 1   
     2     1    27 1   
     3     1    28 1   
     4     1    29 1   
     5     2     3 1   
     6     2    10 1   
     7     2    30 1   
     8     3     4 1   
     9     3    31 1   
    10     3    32 1   
    11     4     5 1   
    12     4    33 1   
    13     4    34 1   
    14     5     6 1   
    15     5     9 1   
    16     5    35 1   
    17     6     7 1   
    18     6    18 1   
    19     6    36 1   
    20     7    19 1   
    21     7    23 1   
    22     7    37 1   
    23     8     9 1   
    24     8    19 1   
    25     8    20 1   
    26     8    38 1   
    27     9    10 1   
    28     9    22 1   
    29    10    11 1   
    30    10    39 1   
    31    11    12 1   
    32    11    40 1   
    33    11    41 1   
    34    12    13 1   
    35    12    42 1   
    36    12    43 1   
    37    13    14 1   
    38    13    20 1   
    39    13    21 1   
    40    14    44 1   
    41    14    45 1   
    42    14    46 1   
    43    15    16 1   
    44    15    47 1   
    45    15    48 1   
    46    15    54 1   
    47    16    17 1   
    48    16    49 1   
    49    16    50 1   
    50    17    25 1   
    51    17    26 1   
    52    18    51 1   
    53    18    52 1   
    54    18    53 1   
    55    21    22 1   
    56    23    54 1   
    57    24    54 2   
@<TRIPOS>SUBSTRUCTURE
     1 D95         1 TEMP              0 ****  ****    0 ROOT
