@<TRIPOS>MOLECULE
D95
   54    57     1     0     0
SMALL
abcg2


@<TRIPOS>ATOM
      1 CAA         30.3710    30.4720   216.3200 c3         1 D95      -0.085100
      2 CAB         29.0850    30.6500   217.1290 c6         1 D95      -0.058700
      3 CAC         27.9720    31.2040   216.2440 c6         1 D95      -0.073400
      4 CAD         26.6720    31.3830   217.0120 c6         1 D95      -0.074400
      5 CAE         26.8520    32.3210   218.2120 c6         1 D95      -0.053700
      6 CAF         25.5570    32.5560   219.0170 c6         1 D95      -0.093700
      7 CAG         25.2330    31.3060   219.8130 c6         1 D95       0.407300
      8 CAI         27.5390    30.6910   220.0270 c6         1 D95       0.407300
      9 CAJ         27.9950    31.8590   219.1380 c6         1 D95       0.090000
     10 CAK         29.3000    31.5500   218.3620 c6         1 D95      -0.061700
     11 CAL         30.4130    30.9930   219.2620 c3         1 D95      -0.064400
     12 CAM         30.5250    31.6020   220.6570 c3         1 D95      -0.103400
     13 CAN         29.2360    31.5090   221.4850 c6         1 D95       0.353000
     14 CAR         29.4750    31.3410   222.9700 c3         1 D95      -0.085100
     15 CAV         22.2800    31.0120   222.0160 c3         1 D95      -0.092400
     16 CAW         22.0010    30.0440   223.1590 c3         1 D95      -0.205400
     17 CAX         23.1830    29.8460   224.1290 c          1 D95       0.708000
     18 CBA         24.3810    32.9960   218.1470 c3         1 D95      -0.076100
     19 OAH         26.2990    30.9590   220.6750 os         1 D95      -0.446000
     20 OAO         28.4480    30.3860   221.0430 os         1 D95      -0.439000
     21 OAP         28.4490    32.6780   221.3730 os         1 D95      -0.206000
     22 OAQ         28.2840    33.0250   219.9690 os         1 D95      -0.245000
     23 OAS         24.1380    31.5870   220.6740 os         1 D95      -0.442100
     24 OAU         23.5780    29.4020   220.7720 o          1 D95      -0.495000
     25 OAY         22.9530    29.1410   225.1450 o          1 D95      -0.733000
     26 OAZ         24.2780    30.3910   223.8330 o          1 D95      -0.733000
     27 HAA         31.1430    29.9450   216.8790 hc         1 D95       0.031033
     28 HAB         30.1670    29.9000   215.4120 hc         1 D95       0.031033
     29 HAC         30.7740    31.4440   216.0200 hc         1 D95       0.031033
     30 HAD         28.7720    29.6600   217.4830 hc         1 D95       0.052700
     31 HAF         27.8140    30.5330   215.3960 hc         1 D95       0.037200
     32 HAE         28.2900    32.1690   215.8310 hc         1 D95       0.037200
     33 HAG         25.9070    31.7960   216.3550 hc         1 D95       0.047200
     34 HAH         26.3070    30.4040   217.3350 hc         1 D95       0.047200
     35 HAI         27.1670    33.2930   217.8170 hc         1 D95       0.056700
     36 HAJ         25.7650    33.3390   219.7490 hc         1 D95       0.095700
     37 HAK         24.9750    30.4590   219.1720 h2         1 D95       0.041700
     38 HAL         27.4320    29.7940   219.4100 h2         1 D95       0.067700
     39 HAM         29.6190    32.5310   217.9890 hc         1 D95       0.053700
     40 HAN         30.2730    29.9150   219.3670 hc         1 D95       0.043700
     41 HAO         31.3700    31.1310   218.7600 hc         1 D95       0.043700
     42 HAQ         31.3100    31.0720   221.1990 hc         1 D95       0.054200
     43 HAP         30.8200    32.6520   220.6130 hc         1 D95       0.054200
     44 HAR         28.5330    31.4140   223.5130 hc         1 D95       0.063033
     45 HAT         29.9130    30.3590   223.1450 hc         1 D95       0.063033
     46 HAS         30.1650    32.1050   223.3270 hc         1 D95       0.063033
     47 HAV         22.5170    32.0060   222.3890 hc         1 D95       0.042700
     48 HAW         21.3930    31.1050   221.3800 hc         1 D95       0.042700
     49 HAY         21.1430    30.3980   223.7340 hc         1 D95       0.032200
     50 HAX         21.7230    29.0640   222.7660 hc         1 D95       0.032200
     51 HBB         23.5580    33.3500   218.7670 hc         1 D95       0.033700
     52 HBA         24.6830    33.8100   217.4850 hc         1 D95       0.033700
     53 HBC         24.0080    32.1790   217.5270 hc         1 D95       0.033700
     54 CAT         23.3920    30.5450   221.1190 c          1 D95       0.637100
@<TRIPOS>BOND
     1     1     2 1   
     2     1    27 1   
     3     1    28 1   
     4     1    29 1   
     5     2     3 1   
     6     2    10 1   
     7     2    30 1   
     8     3     4 1   
     9     3    31 1   
    10     3    32 1   
    11     4     5 1   
    12     4    33 1   
    13     4    34 1   
    14     5     6 1   
    15     5     9 1   
    16     5    35 1   
    17     6     7 1   
    18     6    18 1   
    19     6    36 1   
    20     7    19 1   
    21     7    23 1   
    22     7    37 1   
    23     8     9 1   
    24     8    19 1   
    25     8    20 1   
    26     8    38 1   
    27     9    10 1   
    28     9    22 1   
    29    10    11 1   
    30    10    39 1   
    31    11    12 1   
    32    11    40 1   
    33    11    41 1   
    34    12    13 1   
    35    12    42 1   
    36    12    43 1   
    37    13    14 1   
    38    13    20 1   
    39    13    21 1   
    40    14    44 1   
    41    14    45 1   
    42    14    46 1   
    43    15    16 1   
    44    15    47 1   
    45    15    48 1   
    46    15    54 1   
    47    16    17 1   
    48    16    49 1   
    49    16    50 1   
    50    17    25 1   
    51    17    26 1   
    52    18    51 1   
    53    18    52 1   
    54    18    53 1   
    55    21    22 1   
    56    23    54 1   
    57    24    54 2   
@<TRIPOS>SUBSTRUCTURE
     1 D95         1 TEMP              0 ****  ****    0 ROOT
