@<TRIPOS>MOLECULE
D96
   47    49     1     0     0
SMALL
abcg2


@<TRIPOS>ATOM
      1 N1         213.5170  -130.7770   102.2810 nc         1 D96      -0.724100
      2 C1         214.7700  -130.5860   102.7580 cc         1 D96       0.153400
      3 C2         215.9310  -131.3010   102.4230 cd         1 D96      -0.281600
      4 C3         215.8120  -132.3580   101.4790 c          1 D96       0.615600
      5 N2         214.4930  -132.5010   101.0080 ns         1 D96      -0.454400
      6 C4         213.4210  -131.7430   101.3980 cd         1 D96       0.714800
      7 C5         217.0180  -130.7470   103.1860 cd         1 D96      -0.035300
      8 C6         216.4780  -129.7380   103.9360 cc         1 D96      -0.214000
      9 N3         215.1150  -129.6480   103.6740 na         1 D96      -0.122000
     10 O1         216.6850  -133.1200   101.0550 o          1 D96      -0.516000
     11 N4         212.2330  -131.9980   100.7920 nv         1 D96      -1.039200
     12 C7         218.4560  -131.1520   103.1440 c3         1 D96       0.045200
     13 C8         219.1770  -130.8210   101.8520 ca         1 D96      -0.092300
     14 C9         218.7980  -129.7460   101.0490 ca         1 D96      -0.124000
     15 C10        219.4950  -129.4450    99.8870 ca         1 D96      -0.077500
     16 C11        220.6010  -130.2020    99.5010 ca         1 D96      -0.095600
     17 C12        220.9790  -131.2850   100.2990 ca         1 D96      -0.077500
     18 C13        220.2710  -131.5900   101.4520 ca         1 D96      -0.124000
     19 C14        221.3120  -129.8390    98.2340 c          1 D96       0.596700
     20 O2         220.7320  -129.2310    97.3260 o          1 D96      -0.633100
     21 N5         222.6000  -130.2140    98.1460 ns         1 D96      -0.419900
     22 C15        223.4420  -129.9160    97.0020 c3         1 D96      -0.027300
     23 C16        224.5900  -130.9280    96.9310 c3         1 D96      -0.050400
     24 C17        224.0170  -128.4710    97.0220 c          1 D96       0.708000
     25 O3         224.1290  -127.9000    98.1320 o          1 D96      -0.748000
     26 O4         224.3570  -128.0160    95.9010 o          1 D96      -0.748000
     27 C18        224.1280  -132.3760    96.7550 c3         1 D96      -0.196400
     28 C19        223.3420  -132.6050    95.4510 c          1 D96       0.710000
     29 O5         223.9190  -132.2930    94.3760 o          1 D96      -0.754000
     30 O6         222.1830  -133.0890    95.5490 o          1 D96      -0.754000
     31 H1         214.3560  -133.2290   100.3200 hn         1 D96       0.321500
     32 H2         216.9480  -129.0680   104.6360 h4         1 D96       0.146000
     33 H3         214.4780  -128.9910   104.0960 hn         1 D96       0.348000
     34 H4         211.4220  -131.5790   101.2180 hn         1 D96       0.484000
     35 H5         212.0860  -132.8940   100.3540 hn         1 D96       0.484000
     36 H6         218.5500  -132.2260   103.3210 hc         1 D96       0.045700
     37 H7         218.9820  -130.6590   103.9680 hc         1 D96       0.045700
     38 H8         217.9460  -129.1420   101.3340 ha         1 D96       0.093500
     39 H9         219.1870  -128.6130    99.2670 ha         1 D96       0.130000
     40 H10        221.8100  -131.9170   100.0100 ha         1 D96       0.130000
     41 H11        220.5670  -132.4460   102.0480 ha         1 D96       0.093500
     42 H12        223.0540  -130.5590    98.9760 hn         1 D96       0.286500
     43 H13        222.8240  -130.0070    96.1090 h1         1 D96       0.100700
     44 H14        225.2290  -130.6460    96.0940 hc         1 D96       0.028700
     45 H15        225.1920  -130.8400    97.8420 hc         1 D96       0.028700
     46 H17        223.5170  -132.6860    97.6040 hc         1 D96       0.000200
     47 H18        225.0110  -133.0230    96.7330 hc         1 D96       0.000200
@<TRIPOS>BOND
     1     1     2 1   
     2     1     6 2   
     3     2     3 2   
     4     2     9 1   
     5     3     4 1   
     6     3     7 1   
     7     4     5 1   
     8     4    10 2   
     9     5     6 1   
    10     5    31 1   
    11     6    11 1   
    12     7     8 2   
    13     7    12 1   
    14     8     9 1   
    15     8    32 1   
    16     9    33 1   
    17    11    34 1   
    18    11    35 1   
    19    12    13 1   
    20    12    36 1   
    21    12    37 1   
    22    13    14 ar  
    23    13    18 ar  
    24    14    15 ar  
    25    14    38 1   
    26    15    16 ar  
    27    15    39 1   
    28    16    17 ar  
    29    16    19 1   
    30    17    18 ar  
    31    17    40 1   
    32    18    41 1   
    33    19    20 2   
    34    19    21 1   
    35    21    22 1   
    36    21    42 1   
    37    22    23 1   
    38    22    24 1   
    39    22    43 1   
    40    23    27 1   
    41    23    44 1   
    42    23    45 1   
    43    24    25 1   
    44    24    26 1   
    45    27    28 1   
    46    27    46 1   
    47    27    47 1   
    48    28    29 1   
    49    28    30 1   
@<TRIPOS>SUBSTRUCTURE
     1 D96         1 TEMP              0 ****  ****    0 ROOT
