@<TRIPOS>MOLECULE
D96
   47    49     1     0     0
SMALL
No Charge or Current Charge


@<TRIPOS>ATOM
      1 N1         213.7110  -131.7000   101.5330 nc         1 D96      -0.724100
      2 C1         214.7030  -130.9030   102.0480 cc         1 D96       0.153400
      3 C2         215.9690  -131.3270   102.3180 cd         1 D96      -0.281600
      4 C3         216.3570  -132.7260   102.0600 c          1 D96       0.615600
      5 N2         215.3260  -133.4490   101.5530 ns         1 D96      -0.454400
      6 C4         214.1070  -132.9310   101.3210 cd         1 D96       0.714800
      7 C5         216.7130  -130.2310   102.8330 cd         1 D96      -0.035300
      8 C6         215.8760  -129.1400   102.8750 cc         1 D96      -0.214000
      9 N3         214.6350  -129.5660   102.3870 na         1 D96      -0.122000
     10 O1         217.4560  -133.2130   102.2670 o          1 D96      -0.516000
     11 N4         213.1860  -133.7440   100.8320 nv         1 D96      -1.039200
     12 C7         218.1630  -130.2410   103.2560 c3         1 D96       0.045200
     13 C8         219.1340  -130.0190   102.1000 ca         1 D96      -0.092300
     14 C9         219.1570  -128.7860   101.4250 ca         1 D96      -0.124000
     15 C10        220.0480  -128.5720   100.3600 ca         1 D96      -0.077500
     16 C11        220.9410  -129.5870    99.9460 ca         1 D96      -0.095600
     17 C12        220.9130  -130.8260   100.6330 ca         1 D96      -0.077500
     18 C13        220.0190  -131.0350   101.6980 ca         1 D96      -0.124000
     19 C14        221.8920  -129.3210    98.7920 c          1 D96       0.596700
     20 O2         221.9040  -128.2520    98.1920 o          1 D96      -0.633100
     21 N5         222.7540  -130.3450    98.4530 ns         1 D96      -0.419900
     22 C15        223.7350  -130.3040    97.3410 c3         1 D96      -0.027300
     23 C16        223.8640  -131.6850    96.6450 c3         1 D96      -0.050400
     24 C17        225.1170  -129.7910    97.8510 c          1 D96       0.708000
     25 O3         225.6360  -130.3480    98.8100 o          1 D96      -0.748000
     26 O4         225.6100  -128.8150    97.3020 o          1 D96      -0.748000
     27 C18        222.5770  -132.2100    95.9490 c3         1 D96      -0.196400
     28 C19        222.2080  -131.3460    94.7240 c          1 D96       0.710000
     29 O5         222.7410  -131.6070    93.6560 o          1 D96      -0.754000
     30 O6         221.4210  -130.4250    94.8740 o          1 D96      -0.754000
     31 H1         215.5190  -134.4110   101.3330 hn         1 D96       0.321500
     32 H2         216.0580  -128.1220   103.2000 h4         1 D96       0.146000
     33 H3         213.8050  -128.9930   102.2890 hn         1 D96       0.348000
     34 H4         212.2500  -133.3590   100.8640 hn         1 D96       0.484000
     35 H5         213.2610  -134.7260   101.0630 hn         1 D96       0.484000
     36 H6         218.3910  -131.1800   103.7730 hc         1 D96       0.045700
     37 H7         218.3230  -129.4590   104.0080 hc         1 D96       0.045700
     38 H8         218.4800  -127.9900   101.7240 ha         1 D96       0.093500
     39 H9         220.0430  -127.6090    99.8550 ha         1 D96       0.130000
     40 H10        221.5760  -131.6420   100.3550 ha         1 D96       0.130000
     41 H11        220.0160  -131.9940   102.2090 ha         1 D96       0.093500
     42 H12        222.7080  -131.1850    99.0130 hn         1 D96       0.286500
     43 H13        223.3930  -129.5750    96.5960 h1         1 D96       0.100700
     44 H14        224.6670  -131.6310    95.9010 hc         1 D96       0.028700
     45 H15        224.1850  -132.4250    97.3890 hc         1 D96       0.028700
     46 H17        221.7780  -132.1910    96.7010 hc         1 D96       0.000200
     47 H18        222.8360  -133.2250    95.6240 hc         1 D96       0.000200
@<TRIPOS>BOND
     1     1     2 1   
     2     1     6 2   
     3     2     3 2   
     4     2     9 1   
     5     3     4 1   
     6     3     7 1   
     7     4     5 1   
     8     4    10 2   
     9     5     6 1   
    10     5    31 1   
    11     6    11 1   
    12     7     8 2   
    13     7    12 1   
    14     8     9 1   
    15     8    32 1   
    16     9    33 1   
    17    11    34 1   
    18    11    35 1   
    19    12    13 1   
    20    12    36 1   
    21    12    37 1   
    22    13    14 ar  
    23    13    18 ar  
    24    14    15 ar  
    25    14    38 1   
    26    15    16 ar  
    27    15    39 1   
    28    16    17 ar  
    29    16    19 1   
    30    17    18 ar  
    31    17    40 1   
    32    18    41 1   
    33    19    20 2   
    34    19    21 1   
    35    21    22 1   
    36    21    42 1   
    37    22    23 1   
    38    22    24 1   
    39    22    43 1   
    40    23    27 1   
    41    23    44 1   
    42    23    45 1   
    43    24    25 1   
    44    24    26 1   
    45    27    28 1   
    46    27    46 1   
    47    27    47 1   
    48    28    29 1   
    49    28    30 1   
@<TRIPOS>SUBSTRUCTURE
     1 D96         1 TEMP              0 ****  ****    0 ROOT
