@<TRIPOS>MOLECULE
D97
   52    56     1     0     0
SMALL
bcc


@<TRIPOS>ATOM
      1 O3          15.7400   -15.8980    -9.1590 os         1 D97      -0.410600
      2 C4           7.1220   -14.1840    -3.8210 ca         1 D97      -0.149300
      3 C5           6.5030   -15.4410    -4.0140 ca         1 D97      -0.106000
      4 C6           7.6840   -13.4380    -4.8770 ca         1 D97      -0.052000
      5 N1           9.6930   -12.1730    -6.6100 n7         1 D97      -0.824200
      6 C7           8.2690   -12.2270    -4.6220 ca         1 D97      -0.221600
      7 C8           8.2820   -11.7830    -3.2790 ca         1 D97       0.418200
      8 N2          13.5100   -15.0390    -7.5190 n3         1 D97      -0.741600
      9 C9           8.8800   -11.3820    -5.7070 c3         1 D97       0.219100
     10 C10         10.9380   -12.6560    -6.0420 c6         1 D97       0.099500
     11 C11         12.0220   -11.5840    -5.7710 c5         1 D97       0.067100
     12 C12         12.7230   -11.7860    -4.4320 c5         1 D97       0.109400
     13 C13         13.7100   -12.9240    -6.1480 c5         1 D97       0.281900
     14 C14         12.8820   -14.1820    -6.5370 c6         1 D97       0.165500
     15 C15         11.4920   -13.7310    -6.9810 c6         1 D97       0.167100
     16 O2          10.6340   -14.8420    -7.0310 oh         1 D97      -0.574800
     17 C19         13.8020   -14.4430    -8.8110 c6         1 D97       0.149300
     18 C18         14.5000   -15.4620    -9.6900 c6         1 D97       0.122400
     19 C17         15.8940   -15.6470    -7.7780 c6         1 D97       0.122400
     20 C16         14.6050   -15.8630    -7.0060 c6         1 D97       0.149300
     21 O           13.7300   -12.7380    -4.7470 os         1 D97      -0.421600
     22 O1          13.1160   -11.7670    -6.6650 os         1 D97      -0.398600
     23 C            5.9820   -16.1240    -2.9510 ca         1 D97      -0.124000
     24 N            7.7740   -12.4400    -2.2720 nb         1 D97      -0.657000
     25 C3           7.1930   -13.6380    -2.5150 ca         1 D97       0.398600
     26 C2           6.6460   -14.3670    -1.4340 ca         1 D97      -0.167300
     27 C1           6.0560   -15.5820    -1.6490 ca         1 D97      -0.117000
     28 H2           7.6470   -13.8290    -5.8870 ha         1 D97       0.146000
     29 H3           9.8740   -11.6450    -7.4560 hn         1 D97       0.369800
     30 H5           8.7460   -10.8280    -3.0480 h4         1 D97       0.013100
     31 H7           9.4260   -10.5490    -5.2410 h1         1 D97       0.041200
     32 H8           8.0840   -10.9200    -6.2960 h1         1 D97       0.041200
     33 H9          10.6780   -13.1460    -5.0960 h1         1 D97       0.087700
     34 H10         11.6360   -10.5720    -5.9010 h1         1 D97       0.089700
     35 H11         13.1760   -10.8580    -4.0690 h1         1 D97       0.061200
     36 H12         12.0590   -12.1720    -3.6560 h1         1 D97       0.061200
     37 H13         14.7400   -12.9910    -6.5130 h2         1 D97       0.099700
     38 H14         12.7560   -14.7870    -5.6320 h1         1 D97       0.091700
     39 H15         11.5680   -13.2710    -7.9780 h1         1 D97       0.038700
     40 H16          9.7500   -14.4860    -7.1790 ho         1 D97       0.415000
     41 H17         14.4140   -13.5290    -8.7570 h1         1 D97       0.049450
     42 H18         12.8750   -14.1610    -9.3140 h1         1 D97       0.049450
     43 H19         14.6840   -15.0250   -10.6740 h1         1 D97       0.047450
     44 H20         13.8300   -16.3200    -9.8310 h1         1 D97       0.047450
     45 H21         16.6630   -16.3270    -7.4070 h1         1 D97       0.047450
     46 H22         16.2600   -14.6260    -7.6050 h1         1 D97       0.047450
     47 H23         14.8060   -15.6380    -5.9550 h1         1 D97       0.049450
     48 H24         14.3340   -16.9250    -7.0470 h1         1 D97       0.049450
     49 H25          5.5090   -17.0850    -3.1030 ha         1 D97       0.135000
     50 H26          6.7090   -13.9430    -0.4400 ha         1 D97       0.149000
     51 H27          5.6410   -16.1360    -0.8170 ha         1 D97       0.135000
     52 H1           6.4470   -15.8530    -5.0150 ha         1 D97       0.136000
@<TRIPOS>BOND
     1     1    18 1   
     2     1    19 1   
     3     2     3 ar  
     4     2     4 ar  
     5     2    25 ar  
     6     3    23 ar  
     7     3    52 1   
     8     4     6 ar  
     9     4    28 1   
    10     5     9 1   
    11     5    10 1   
    12     5    29 1   
    13     6     7 ar  
    14     6     9 1   
    15     7    24 ar  
    16     7    30 1   
    17     8    14 1   
    18     8    17 1   
    19     8    20 1   
    20     9    31 1   
    21     9    32 1   
    22    10    11 1   
    23    10    15 1   
    24    10    33 1   
    25    11    12 1   
    26    11    22 1   
    27    11    34 1   
    28    12    21 1   
    29    12    35 1   
    30    12    36 1   
    31    13    14 1   
    32    13    21 1   
    33    13    22 1   
    34    13    37 1   
    35    14    15 1   
    36    14    38 1   
    37    15    16 1   
    38    15    39 1   
    39    16    40 1   
    40    17    18 1   
    41    17    41 1   
    42    17    42 1   
    43    18    43 1   
    44    18    44 1   
    45    19    20 1   
    46    19    45 1   
    47    19    46 1   
    48    20    47 1   
    49    20    48 1   
    50    23    27 ar  
    51    23    49 1   
    52    24    25 ar  
    53    25    26 ar  
    54    26    27 ar  
    55    26    50 1   
    56    27    51 1   
@<TRIPOS>SUBSTRUCTURE
     1 D97         1 TEMP              0 ****  ****    0 ROOT
