@<TRIPOS>MOLECULE
D97
   52    56     1     0     0
SMALL
No Charge or Current Charge


@<TRIPOS>ATOM
      1 O3          15.1580   -16.5520    -9.1160 os         1 D97      -0.457000
      2 C4           6.9290   -14.1360    -3.7600 ca         1 D97      -0.084000
      3 C5           6.1380   -15.2900    -3.9190 ca         1 D97      -0.088000
      4 C6           7.3340   -13.3970    -4.8850 ca         1 D97      -0.034000
      5 N1           9.5520   -12.1770    -6.7080 n7         1 D97      -0.879400
      6 C7           8.1250   -12.2530    -4.6890 ca         1 D97      -0.156300
      7 C8           8.4720   -11.8940    -3.3760 ca         1 D97       0.352900
      8 N2          13.7470   -14.9350    -7.4870 n3         1 D97      -0.741600
      9 C9           8.6020   -11.4200    -5.8660 c3         1 D97       0.219100
     10 C10         10.7910   -12.7240    -6.0730 c6         1 D97       0.099500
     11 C11         11.7960   -11.6100    -5.6100 c5         1 D97       0.090300
     12 C12         12.5850   -12.0210    -4.3190 c5         1 D97       0.132600
     13 C13         13.7060   -12.6620    -6.2420 c5         1 D97       0.328300
     14 C14         12.9620   -14.0330    -6.5540 c6         1 D97       0.165500
     15 C15         11.5010   -13.7220    -7.0430 c6         1 D97       0.190300
     16 O2          10.6790   -14.8940    -7.1830 oh         1 D97      -0.637000
     17 C19         13.9500   -14.3810    -8.8700 c6         1 D97       0.149300
     18 C18         14.8370   -15.3020    -9.7750 c6         1 D97       0.145600
     19 C17         15.8410   -16.3590    -7.8520 c6         1 D97       0.145600
     20 C16         15.0310   -15.4270    -6.8870 c6         1 D97       0.149300
     21 O           13.8690   -12.4770    -4.8200 os         1 D97      -0.468000
     22 O1          12.8770   -11.5260    -6.5680 os         1 D97      -0.445000
     23 C            5.7350   -16.0270    -2.7930 ca         1 D97      -0.106000
     24 N            8.0850   -12.5980    -2.2870 nb         1 D97      -0.657000
     25 C3           7.3250   -13.7040    -2.4670 ca         1 D97       0.268000
     26 C2           6.9100   -14.4570    -1.3520 ca         1 D97      -0.084000
     27 C1           6.1210   -15.6100    -1.5100 ca         1 D97      -0.099000
     28 H2           7.0490   -13.7050    -5.8890 ha         1 D97       0.128000
     29 H3           9.8180   -11.5800    -7.5030 hn         1 D97       0.425000
     30 H5           9.0850   -11.0140    -3.1830 h4         1 D97       0.013100
     31 H7           9.0610   -10.4930    -5.4980 h1         1 D97       0.041200
     32 H8           7.7270   -11.1260    -6.4620 h1         1 D97       0.041200
     33 H9          10.4930   -13.2990    -5.1820 h1         1 D97       0.087700
     34 H10         11.2990   -10.6380    -5.5010 h1         1 D97       0.089700
     35 H11         12.7450   -11.1670    -3.6460 h1         1 D97       0.061200
     36 H12         12.0950   -12.8240    -3.7520 h1         1 D97       0.061200
     37 H13         14.6760   -12.5930    -6.7510 h2         1 D97       0.099700
     38 H14         12.8520   -14.5600    -5.5940 h1         1 D97       0.091700
     39 H15         11.5760   -13.2220    -8.0190 h1         1 D97       0.038700
     40 H16          9.7640   -14.5360    -7.2360 ho         1 D97       0.454000
     41 H17         14.4230   -13.3890    -8.8310 h1         1 D97       0.049450
     42 H18         12.9820   -14.2460    -9.3730 h1         1 D97       0.049450
     43 H19         15.7720   -14.7820   -10.0280 h1         1 D97       0.047450
     44 H20         14.3100   -15.5190   -10.7150 h1         1 D97       0.047450
     45 H21         15.9930   -17.3390    -7.3790 h1         1 D97       0.047450
     46 H22         16.8320   -15.9220    -8.0420 h1         1 D97       0.047450
     47 H23         15.6810   -14.5840    -6.6120 h1         1 D97       0.049450
     48 H24         14.8270   -15.9800    -5.9580 h1         1 D97       0.049450
     49 H25          5.1240   -16.9190    -2.9160 ha         1 D97       0.117000
     50 H26          7.2050   -14.1410    -0.3550 ha         1 D97       0.131000
     51 H27          5.8090   -16.1790    -0.6360 ha         1 D97       0.117000
     52 H1           5.8360   -15.6180    -4.9120 ha         1 D97       0.118000
@<TRIPOS>BOND
     1     1    18 1   
     2     1    19 1   
     3     2     3 ar  
     4     2     4 ar  
     5     2    25 ar  
     6     3    23 ar  
     7     3    52 1   
     8     4     6 ar  
     9     4    28 1   
    10     5     9 1   
    11     5    10 1   
    12     5    29 1   
    13     6     7 ar  
    14     6     9 1   
    15     7    24 ar  
    16     7    30 1   
    17     8    14 1   
    18     8    17 1   
    19     8    20 1   
    20     9    31 1   
    21     9    32 1   
    22    10    11 1   
    23    10    15 1   
    24    10    33 1   
    25    11    12 1   
    26    11    22 1   
    27    11    34 1   
    28    12    21 1   
    29    12    35 1   
    30    12    36 1   
    31    13    14 1   
    32    13    21 1   
    33    13    22 1   
    34    13    37 1   
    35    14    15 1   
    36    14    38 1   
    37    15    16 1   
    38    15    39 1   
    39    16    40 1   
    40    17    18 1   
    41    17    41 1   
    42    17    42 1   
    43    18    43 1   
    44    18    44 1   
    45    19    20 1   
    46    19    45 1   
    47    19    46 1   
    48    20    47 1   
    49    20    48 1   
    50    23    27 ar  
    51    23    49 1   
    52    24    25 ar  
    53    25    26 ar  
    54    26    27 ar  
    55    26    50 1   
    56    27    51 1   
@<TRIPOS>SUBSTRUCTURE
     1 D97         1 TEMP              0 ****  ****    0 ROOT
