@<TRIPOS>MOLECULE
D98
   46    49     1     0     0
SMALL
bcc


@<TRIPOS>ATOM
      1 C1           5.8030    -0.6230     0.7870 ca         1 D98      -0.122000
      2 C2           4.4180    -0.7340     0.7620 ca         1 D98       0.149100
      3 C3           3.6540     0.1660     0.0050 cp         1 D98      -0.128000
      4 C4           4.3170     1.1720    -0.6920 ca         1 D98      -0.084000
      5 C5           5.6970     1.2780    -0.6790 ca         1 D98      -0.152000
      6 C6           6.4510     0.3680     0.0610 ca         1 D98      -0.102900
      7 C7           2.1800     0.0640    -0.0500 cp         1 D98      -0.032000
      8 C8           1.3790     1.1370     0.3430 ca         1 D98      -0.126500
      9 C9           0.0010     1.0540     0.2800 ca         1 D98      -0.100500
     10 C10         -0.6210    -0.1080    -0.1810 ca         1 D98      -0.107900
     11 C11          0.1750    -1.1800    -0.5780 ca         1 D98      -0.100500
     12 C12          1.5570    -1.0950    -0.5130 ca         1 D98      -0.126500
     13 C13         -2.0790    -0.1660    -0.2280 cc         1 D98       0.465400
     14 N14         -2.7670    -1.1840    -0.8170 na         1 D98      -0.256300
     15 C15         -4.0980    -0.9190    -0.6720 ca         1 D98      -0.067200
     16 C16         -4.1440     0.2980     0.0290 ca         1 D98       0.059400
     17 N17         -2.8720     0.7380     0.2880 nd         1 D98      -0.562100
     18 C18         -5.3700     0.8670     0.3590 ca         1 D98      -0.011000
     19 C19         -5.2470    -1.5930    -1.0640 ca         1 D98      -0.143000
     20 C20         -6.4550    -1.0170    -0.7190 ca         1 D98      -0.093000
     21 C21         -6.5290     0.1990    -0.0100 ca         1 D98      -0.173900
     22 C22         -7.8460     0.7960     0.3480 ce         1 D98       0.662800
     23 N24         -8.8790    -0.0920     0.4570 nv         1 D98      -0.965800
     24 N23         -7.9300     2.0630     0.4870 n2         1 D98      -0.826100
     25 C25          7.9380     0.4460     0.1130 ce         1 D98       0.656800
     26 N26          8.5380     0.0190     1.1570 n2         1 D98      -0.820100
     27 N27          8.5230     1.0310    -0.9730 nv         1 D98      -0.965800
     28 OAE          3.8700    -1.7200     1.5000 oh         1 D98      -0.495100
     29 H1           6.3810    -1.3210     1.3780 ha         1 D98       0.171000
     30 HAE          2.9080    -1.6540     1.5080 ho         1 D98       0.434000
     31 H4           3.7340     1.8800    -1.2680 ha         1 D98       0.136000
     32 H5           6.1720     2.0780    -1.2290 ha         1 D98       0.141000
     33 H8           1.8410     2.0430     0.7140 ha         1 D98       0.143000
     34 H12          2.1480    -1.9340    -0.8570 ha         1 D98       0.143000
     35 H9          -0.6020     1.8960     0.5930 ha         1 D98       0.144000
     36 H11         -0.2610    -2.1010    -0.9410 ha         1 D98       0.144000
     37 H14         -2.3760    -1.9790    -1.2960 hn         1 D98       0.307700
     38 H19         -5.2080    -2.5220    -1.6170 ha         1 D98       0.137000
     39 H18         -5.4230     1.8010     0.9010 ha         1 D98       0.170000
     40 H20         -7.3650    -1.5140    -1.0270 ha         1 D98       0.137000
     41 H23         -8.8660     2.3390     0.7740 hn         1 D98       0.370400
     42 H241        -8.6670    -1.0380     0.7290 hn         1 D98       0.404300
     43 H242        -9.7430     0.2520     0.8460 hn         1 D98       0.404300
     44 H26          9.5460     0.1020     1.0610 hn         1 D98       0.372400
     45 H271         8.0530     0.9690    -1.8610 hn         1 D98       0.406800
     46 H272         9.5270     0.9750    -1.0430 hn         1 D98       0.406800
@<TRIPOS>BOND
     1     1     2 ar  
     2     1     6 ar  
     3     1    29 1   
     4     2     3 ar  
     5     2    28 1   
     6     3     4 ar  
     7     3     7 1   
     8     4     5 ar  
     9     4    31 1   
    10     5     6 ar  
    11     5    32 1   
    12     6    25 1   
    13     7     8 ar  
    14     7    12 ar  
    15     8     9 ar  
    16     8    33 1   
    17     9    10 ar  
    18     9    35 1   
    19    10    11 ar  
    20    10    13 1   
    21    11    12 ar  
    22    11    36 1   
    23    12    34 1   
    24    13    14 1   
    25    13    17 2   
    26    14    15 1   
    27    14    37 1   
    28    15    16 ar  
    29    15    19 ar  
    30    16    17 1   
    31    16    18 ar  
    32    18    21 ar  
    33    18    39 1   
    34    19    20 ar  
    35    19    38 1   
    36    20    21 ar  
    37    20    40 1   
    38    21    22 1   
    39    22    23 1   
    40    22    24 2   
    41    23    42 1   
    42    23    43 1   
    43    24    41 1   
    44    25    26 2   
    45    25    27 1   
    46    26    44 1   
    47    27    45 1   
    48    27    46 1   
    49    28    30 1   
@<TRIPOS>SUBSTRUCTURE
     1 D98         1 TEMP              0 ****  ****    0 ROOT
