@<TRIPOS>MOLECULE
D98
   46    49     1     0     0
SMALL
No Charge or Current Charge


@<TRIPOS>ATOM
      1 C1           5.9110    -0.7530     0.6440 ca         1 D98      -0.104000
      2 C2           4.5110    -0.8630     0.6380 ca         1 D98       0.149100
      3 C3           3.7090     0.1230     0.0090 cp         1 D98      -0.128000
      4 C4           4.3620     1.2280    -0.5840 ca         1 D98      -0.066000
      5 C5           5.7630     1.3370    -0.5770 ca         1 D98      -0.134000
      6 C6           6.5640     0.3350     0.0210 ca         1 D98      -0.102900
      7 C7           2.2180     0.0340    -0.0290 cp         1 D98      -0.032000
      8 C8           1.4200     1.1170     0.4040 ca         1 D98      -0.108500
      9 C9           0.0170     1.0470     0.3660 ca         1 D98      -0.082500
     10 C10         -0.6360    -0.1110    -0.1150 ca         1 D98      -0.107900
     11 C11          0.1570    -1.1930    -0.5610 ca         1 D98      -0.082500
     12 C12          1.5600    -1.1180    -0.5200 ca         1 D98      -0.108500
     13 C13         -2.1070    -0.1740    -0.1520 cc         1 D98       0.465400
     14 N14         -2.8330    -1.2750    -0.6040 na         1 D98      -0.306600
     15 C15         -4.1510    -0.9610    -0.4880 ca         1 D98      -0.067200
     16 C16         -4.2120     0.3000     0.0210 ca         1 D98       0.059400
     17 N17         -2.9370     0.8170     0.2410 nd         1 D98      -0.562100
     18 C18         -5.4500     0.9170     0.2570 ca         1 D98       0.007000
     19 C19         -5.2880    -1.7060    -0.8100 ca         1 D98      -0.125000
     20 C20         -6.5460    -1.1090    -0.5830 ca         1 D98      -0.075000
     21 C21         -6.6440     0.2030    -0.0300 ca         1 D98      -0.173900
     22 C22         -7.9700     0.8610     0.1870 ce         1 D98       0.662800
     23 N24         -9.0570     0.0740     0.3230 nv         1 D98      -1.076200
     24 N23         -8.1060     2.1120     0.3520 n2         1 D98      -0.826100
     25 C25          8.0640     0.4460     0.0660 ce         1 D98       0.656800
     26 N26          8.7910    -0.2400     0.8490 n2         1 D98      -0.820100
     27 N27          8.6780     1.2470    -0.8340 nv         1 D98      -1.076200
     28 OAE          3.9390    -1.9210     1.2820 oh         1 D98      -0.534100
     29 H1           6.4920    -1.5260     1.1400 ha         1 D98       0.153000
     30 HAE          2.9680    -1.7860     1.2680 ho         1 D98       0.473000
     31 H4           3.7720     2.0070    -1.0620 ha         1 D98       0.118000
     32 H5           6.2160     2.2140    -1.0330 ha         1 D98       0.123000
     33 H8           1.8970     2.0190     0.7810 ha         1 D98       0.125000
     34 H12          2.1460    -1.9570    -0.8900 ha         1 D98       0.125000
     35 H9          -0.5610     1.9000     0.7130 ha         1 D98       0.126000
     36 H11         -0.3030    -2.0980    -0.9490 ha         1 D98       0.126000
     37 H14         -2.4440    -2.1400    -0.9510 hn         1 D98       0.358000
     38 H19         -5.2090    -2.7070    -1.2290 ha         1 D98       0.119000
     39 H18         -5.4780     1.9260     0.6610 ha         1 D98       0.152000
     40 H20         -7.4400    -1.6690    -0.8500 ha         1 D98       0.119000
     41 H23         -9.1050     2.3330     0.2840 hn         1 D98       0.370400
     42 H241        -8.8540    -0.9050     0.4890 hn         1 D98       0.459500
     43 H242        -9.8190     0.4530     0.8730 hn         1 D98       0.459500
     44 H26          9.7350     0.1620     0.8380 hn         1 D98       0.372400
     45 H271         8.0940     1.5400    -1.6090 hn         1 D98       0.462000
     46 H272         9.6280     0.9970    -1.0830 hn         1 D98       0.462000
@<TRIPOS>BOND
     1     1     2 ar  
     2     1     6 ar  
     3     1    29 1   
     4     2     3 ar  
     5     2    28 1   
     6     3     4 ar  
     7     3     7 1   
     8     4     5 ar  
     9     4    31 1   
    10     5     6 ar  
    11     5    32 1   
    12     6    25 1   
    13     7     8 ar  
    14     7    12 ar  
    15     8     9 ar  
    16     8    33 1   
    17     9    10 ar  
    18     9    35 1   
    19    10    11 ar  
    20    10    13 1   
    21    11    12 ar  
    22    11    36 1   
    23    12    34 1   
    24    13    14 1   
    25    13    17 2   
    26    14    15 1   
    27    14    37 1   
    28    15    16 ar  
    29    15    19 ar  
    30    16    17 1   
    31    16    18 ar  
    32    18    21 ar  
    33    18    39 1   
    34    19    20 ar  
    35    19    38 1   
    36    20    21 ar  
    37    20    40 1   
    38    21    22 1   
    39    22    23 1   
    40    22    24 2   
    41    23    42 1   
    42    23    43 1   
    43    24    41 1   
    44    25    26 2   
    45    25    27 1   
    46    26    44 1   
    47    27    45 1   
    48    27    46 1   
    49    28    30 1   
@<TRIPOS>SUBSTRUCTURE
     1 D98         1 TEMP              0 ****  ****    0 ROOT
