@<TRIPOS>MOLECULE
D99
   70    72     1     0     0
SMALL
No Charge or Current Charge


@<TRIPOS>ATOM
      1 C1           2.5300     1.0910    -0.5280 ca         1 D99       0.002000
      2 N1           1.2240     1.2530     0.0660 n          1 D99      -0.258400
      3 O1           4.0240     0.1490     2.4040 oh         1 D99      -0.651000
      4 Cl1          1.1990    -2.4660     0.1250 cl         1 D99      -0.171000
      5 C2           2.7430     1.6170    -1.8210 ca         1 D99      -0.091000
      6 N2          -4.8560    -0.9010    -0.2660 n          1 D99      -0.395800
      7 O2           0.0960     0.3110    -1.7130 o          1 D99      -0.592100
      8 Cl2          6.4900     0.3970    -2.7320 cl         1 D99      -0.212000
      9 C3           3.9590     1.4200    -2.4930 ca         1 D99      -0.091000
     10 O3          -3.8260     0.2110     1.4590 o          1 D99      -0.629100
     11 C4           4.9640     0.6520    -1.8960 ca         1 D99       0.111000
     12 O4          -9.0880     0.6460     1.0160 o          1 D99      -0.731500
     13 C5           4.7430     0.0560    -0.6460 ca         1 D99      -0.097000
     14 O5          -9.1140    -1.4630     0.5800 o          1 D99      -0.731500
     15 C6           3.5190     0.2380     0.0410 ca         1 D99      -0.118300
     16 C7           3.3010    -0.5170     1.3620 c3         1 D99       0.267900
     17 C8           3.6960    -2.0010     1.2610 ca         1 D99      -0.106300
     18 C9           2.7950    -2.9430     0.7050 ca         1 D99       0.126000
     19 C10          3.1530    -4.2990     0.6010 ca         1 D99      -0.103000
     20 C11          4.4090    -4.7380     1.0460 ca         1 D99      -0.102000
     21 C12          5.3110    -3.8170     1.5990 ca         1 D99      -0.116000
     22 C13          4.9600    -2.4610     1.7070 ca         1 D99      -0.095000
     23 C14          0.0540     0.7270    -0.5600 c          1 D99       0.605100
     24 C15         -1.2600     0.5970     0.2450 c3         1 D99      -0.141400
     25 C16         -2.4520    -0.0770    -0.4960 c3         1 D99      -0.153400
     26 C17         -3.7540    -0.2270     0.3160 c          1 D99       0.596100
     27 C18         -6.1520    -1.0590     0.4470 c6         1 D99       0.106000
     28 C19         -7.2590    -0.2130    -0.2310 c6         1 D99      -0.214700
     29 C20         -7.3740    -0.5700    -1.7410 c6         1 D99      -0.056400
     30 C21         -5.9970    -0.4620    -2.4410 c6         1 D99      -0.103400
     31 C22         -4.9340    -1.3040    -1.6970 c6         1 D99       0.097000
     32 C23         -8.6010    -0.3560     0.5150 c          1 D99       0.725000
     33 C24          1.1410     1.9970     1.3620 c3         1 D99       0.106000
     34 C25          1.1480     3.5590     1.2660 c3         1 D99      -0.064000
     35 C26          0.0590     4.0790     0.2900 c3         1 D99      -0.086433
     36 C27          0.8630     4.1310     2.6790 c3         1 D99      -0.086433
     37 C28          2.5360     4.0800     0.8030 c3         1 D99      -0.086433
     38 HO1          4.9030     0.3680     2.0310 ho         1 D99       0.444000
     39 H2           1.9670     2.2100    -2.2980 ha         1 D99       0.133000
     40 H3           4.1190     1.8580    -3.4750 ha         1 D99       0.130000
     41 H5           5.5260    -0.5680    -0.2250 ha         1 D99       0.128000
     42 H7           2.2330    -0.4970     1.6160 h1         1 D99       0.103700
     43 H10          2.4520    -5.0110     0.1720 ha         1 D99       0.130000
     44 H11          4.6820    -5.7880     0.9630 ha         1 D99       0.114000
     45 H12          6.2860    -4.1550     1.9440 ha         1 D99       0.113000
     46 H13          5.6840    -1.7730     2.1360 ha         1 D99       0.117000
     47 H15         -1.0240     0.0650     1.1740 hc         1 D99       0.077200
     48 H15A        -1.5380     1.5850     0.6220 hc         1 D99       0.077200
     49 H16         -2.6960     0.4550    -1.4230 hc         1 D99       0.066700
     50 H16A        -2.1780    -1.0690    -0.8760 hc         1 D99       0.066700
     51 H18         -6.4370    -2.1210     0.4340 h1         1 D99       0.066700
     52 H18A        -6.0610    -0.7660     1.5030 h1         1 D99       0.066700
     53 H19         -6.9630     0.8430    -0.1610 hc         1 D99       0.037700
     54 H20         -7.7620    -1.5920    -1.8570 hc         1 D99       0.044700
     55 H20A        -8.0970     0.0960    -2.2320 hc         1 D99       0.044700
     56 H21         -6.0780    -0.7990    -3.4830 hc         1 D99       0.027700
     57 H21A        -5.6770     0.5880    -2.4730 hc         1 D99       0.027700
     58 H22         -3.9700    -1.2060    -2.2100 h1         1 D99       0.035700
     59 H22A        -5.2140    -2.3660    -1.7480 h1         1 D99       0.035700
     60 H24          0.2610     1.6830     1.9320 h1         1 D99       0.064200
     61 H24A         1.9960     1.7120     1.9840 h1         1 D99       0.064200
     62 H26         -0.9440     3.7940     0.6260 hc         1 D99       0.036033
     63 H26A         0.0860     5.1740     0.2270 hc         1 D99       0.036033
     64 H26B         0.2090     3.6870    -0.7230 hc         1 D99       0.036033
     65 H27          1.6230     3.8010     3.3980 hc         1 D99       0.036033
     66 H27A         0.8630     5.2280     2.6690 hc         1 D99       0.036033
     67 H27B        -0.1160     3.8000     3.0480 hc         1 D99       0.036033
     68 H28          2.7350     3.8210    -0.2420 hc         1 D99       0.036033
     69 H28A         2.5900     5.1730     0.8810 hc         1 D99       0.036033
     70 H28B         3.3410     3.6590     1.4180 hc         1 D99       0.036033
@<TRIPOS>BOND
     1     1     2 1   
     2     1     5 ar  
     3     1    15 ar  
     4     2    23 1   
     5     2    33 1   
     6     3    16 1   
     7     3    38 1   
     8     4    18 1   
     9     5     9 ar  
    10     5    39 1   
    11     6    26 1   
    12     6    27 1   
    13     6    31 1   
    14     7    23 2   
    15     8    11 1   
    16     9    11 ar  
    17     9    40 1   
    18    10    26 2   
    19    11    13 ar  
    20    12    32 1   
    21    13    15 ar  
    22    13    41 1   
    23    14    32 1   
    24    15    16 1   
    25    16    17 1   
    26    16    42 1   
    27    17    18 ar  
    28    17    22 ar  
    29    18    19 ar  
    30    19    20 ar  
    31    19    43 1   
    32    20    21 ar  
    33    20    44 1   
    34    21    22 ar  
    35    21    45 1   
    36    22    46 1   
    37    23    24 1   
    38    24    25 1   
    39    24    47 1   
    40    24    48 1   
    41    25    26 1   
    42    25    49 1   
    43    25    50 1   
    44    27    28 1   
    45    27    51 1   
    46    27    52 1   
    47    28    29 1   
    48    28    32 1   
    49    28    53 1   
    50    29    30 1   
    51    29    54 1   
    52    29    55 1   
    53    30    31 1   
    54    30    56 1   
    55    30    57 1   
    56    31    58 1   
    57    31    59 1   
    58    33    34 1   
    59    33    60 1   
    60    33    61 1   
    61    34    35 1   
    62    34    36 1   
    63    34    37 1   
    64    35    62 1   
    65    35    63 1   
    66    35    64 1   
    67    36    65 1   
    68    36    66 1   
    69    36    67 1   
    70    37    68 1   
    71    37    69 1   
    72    37    70 1   
@<TRIPOS>SUBSTRUCTURE
     1 D99         1 TEMP              0 ****  ****    0 ROOT
