@<TRIPOS>MOLECULE
D99
   70    72     1     0     0
SMALL
abcg2


@<TRIPOS>ATOM
      1 C1           2.2710     0.9680    -0.5600 ca         1 D99       0.002000
      2 N1           1.0350     1.0980     0.1310 n          1 D99      -0.258400
      3 O1           3.7530     0.1100     2.3050 oh         1 D99      -0.651000
      4 CL1          1.6610    -2.5630    -0.5110 cl         1 D99      -0.171000
      5 C2           2.4540     1.6460    -1.7600 ca         1 D99      -0.091000
      6 N2          -4.8120    -0.8640    -0.0800 n          1 D99      -0.395800
      7 O2           0.0040    -0.0100    -1.5390 o          1 D99      -0.592100
      8 CL2          6.1680     0.6700    -2.7960 cl         1 D99      -0.212000
      9 C3           3.6420     1.5640    -2.4610 ca         1 D99      -0.091000
     10 O3          -3.8520     0.4720     1.4630 o          1 D99      -0.629100
     11 C4           4.6650     0.7840    -1.9440 ca         1 D99       0.111000
     12 O4          -9.3360     0.7390    -0.5140 o          1 D99      -0.731500
     13 C5           4.4990     0.0880    -0.7620 ca         1 D99      -0.097000
     14 O5          -8.6140    -0.0390     1.4410 o          1 D99      -0.731500
     15 C6           3.2960     0.1590    -0.0640 ca         1 D99      -0.118300
     16 C7           3.1760    -0.6090     1.2420 c3         1 D99       0.267900
     17 C8           3.7460    -2.0100     1.1210 ca         1 D99      -0.106300
     18 C9           3.1170    -2.9750     0.3370 ca         1 D99       0.126000
     19 C10          3.6140    -4.2620     0.2130 ca         1 D99      -0.103000
     20 C11          4.7760    -4.6100     0.8880 ca         1 D99      -0.102000
     21 C12          5.4190    -3.6710     1.6790 ca         1 D99      -0.116000
     22 C13          4.9020    -2.3880     1.7960 ca         1 D99      -0.095000
     23 C14         -0.0660     0.5230    -0.4470 c          1 D99       0.605100
     24 C15         -1.3580     0.5410     0.3440 c3         1 D99      -0.141400
     25 C16         -2.4720    -0.2020    -0.3710 c3         1 D99      -0.153400
     26 C17         -3.7710    -0.1640     0.4170 c          1 D99       0.596100
     27 C18         -6.1360    -0.7470     0.5180 c6         1 D99       0.106000
     28 C19         -7.0500     0.1040    -0.3580 c6         1 D99      -0.214700
     29 C20         -7.0950    -0.4630    -1.7780 c6         1 D99      -0.056400
     30 C21         -5.6970    -0.6790    -2.3470 c6         1 D99      -0.103400
     31 C22         -4.8380    -1.4940    -1.3890 c6         1 D99       0.097000
     32 C23         -8.4600     0.2760     0.2440 c          1 D99       0.725000
     33 C24          1.0070     1.8450     1.3870 c3         1 D99       0.106000
     34 C25          1.0720     3.3840     1.2920 c3         1 D99      -0.064000
     35 C26          0.0380     3.9400     0.3160 c3         1 D99      -0.086433
     36 C27          0.7670     3.8980     2.7020 c3         1 D99      -0.086433
     37 C28          2.4710     3.8650     0.8960 c3         1 D99      -0.086433
     38 HO1          4.5860     0.5020     2.0200 ho         1 D99       0.444000
     39 H2           1.6560     2.2650    -2.1500 ha         1 D99       0.133000
     40 H3           3.7670     2.1020    -3.3910 ha         1 D99       0.130000
     41 H5           5.3020    -0.5400    -0.3960 ha         1 D99       0.128000
     42 H7           2.1170    -0.7110     1.4920 h1         1 D99       0.103700
     43 H10          3.0990    -4.9850    -0.4040 ha         1 D99       0.130000
     44 H11          5.1670    -5.6140     0.7940 ha         1 D99       0.114000
     45 H12          6.3230    -3.9350     2.2120 ha         1 D99       0.113000
     46 H13          5.4080    -1.6750     2.4320 ha         1 D99       0.117000
     47 H15         -1.1800     0.0900     1.3240 hc         1 D99       0.077200
     48 H15A        -1.6580     1.5710     0.5440 hc         1 D99       0.077200
     49 H16         -2.6430     0.2330    -1.3590 hc         1 D99       0.066700
     50 H16A        -2.1750    -1.2370    -0.5470 hc         1 D99       0.066700
     51 H18         -6.5480    -1.7560     0.6240 h1         1 D99       0.066700
     52 H18A        -6.0420    -0.3290     1.5150 h1         1 D99       0.066700
     53 H19         -6.6040     1.1080    -0.4170 hc         1 D99       0.037700
     54 H20         -7.6270    -1.4210    -1.7650 hc         1 D99       0.044700
     55 H20A        -7.6680     0.2010    -2.4250 hc         1 D99       0.044700
     56 H21         -5.7510    -1.1920    -3.3100 hc         1 D99       0.027700
     57 H21A        -5.2100     0.2850    -2.5270 hc         1 D99       0.027700
     58 H22         -3.8330    -1.6260    -1.7800 h1         1 D99       0.035700
     59 H22A        -5.2620    -2.4960    -1.2730 h1         1 D99       0.035700
     60 H24          0.1030     1.5660     1.9230 h1         1 D99       0.064200
     61 H24A         1.8350     1.5090     2.0110 h1         1 D99       0.064200
     62 H26         -0.9780     3.6400     0.5820 hc         1 D99       0.036033
     63 H26A         0.0670     5.0310     0.3200 hc         1 D99       0.036033
     64 H26B         0.2250     3.6170    -0.7100 hc         1 D99       0.036033
     65 H27          1.4730     3.4960     3.4330 hc         1 D99       0.036033
     66 H27A         0.8390     4.9870     2.7400 hc         1 D99       0.036033
     67 H27B        -0.2390     3.6210     3.0240 hc         1 D99       0.036033
     68 H28          2.7190     3.6300    -0.1370 hc         1 D99       0.036033
     69 H28A         2.5420     4.9490     1.0070 hc         1 D99       0.036033
     70 H28B         3.2380     3.4150     1.5300 hc         1 D99       0.036033
@<TRIPOS>BOND
     1     1     2 1   
     2     1     5 ar  
     3     1    15 ar  
     4     2    23 1   
     5     2    33 1   
     6     3    16 1   
     7     3    38 1   
     8     4    18 1   
     9     5     9 ar  
    10     5    39 1   
    11     6    26 1   
    12     6    27 1   
    13     6    31 1   
    14     7    23 2   
    15     8    11 1   
    16     9    11 ar  
    17     9    40 1   
    18    10    26 2   
    19    11    13 ar  
    20    12    32 1   
    21    13    15 ar  
    22    13    41 1   
    23    14    32 1   
    24    15    16 1   
    25    16    17 1   
    26    16    42 1   
    27    17    18 ar  
    28    17    22 ar  
    29    18    19 ar  
    30    19    20 ar  
    31    19    43 1   
    32    20    21 ar  
    33    20    44 1   
    34    21    22 ar  
    35    21    45 1   
    36    22    46 1   
    37    23    24 1   
    38    24    25 1   
    39    24    47 1   
    40    24    48 1   
    41    25    26 1   
    42    25    49 1   
    43    25    50 1   
    44    27    28 1   
    45    27    51 1   
    46    27    52 1   
    47    28    29 1   
    48    28    32 1   
    49    28    53 1   
    50    29    30 1   
    51    29    54 1   
    52    29    55 1   
    53    30    31 1   
    54    30    56 1   
    55    30    57 1   
    56    31    58 1   
    57    31    59 1   
    58    33    34 1   
    59    33    60 1   
    60    33    61 1   
    61    34    35 1   
    62    34    36 1   
    63    34    37 1   
    64    35    62 1   
    65    35    63 1   
    66    35    64 1   
    67    36    65 1   
    68    36    66 1   
    69    36    67 1   
    70    37    68 1   
    71    37    69 1   
    72    37    70 1   
@<TRIPOS>SUBSTRUCTURE
     1 D99         1 TEMP              0 ****  ****    0 ROOT
