@<TRIPOS>MOLECULE
D9A
   71    73     1     0     0
SMALL
No Charge or Current Charge


@<TRIPOS>ATOM
      1 C1          -1.4190    -0.7190     0.8760 ca         1 D9A      -0.100300
      2 Cl1         -2.6270     0.4680     4.5670 cl         1 D9A      -0.223000
      3 C2          -1.6970    -2.1110     0.8890 ca         1 D9A      -0.015000
      4 N3          -1.2130    -2.9620    -0.1780 n          1 D9A      -0.243400
      5 C4           0.0870    -2.8170    -0.7400 c          1 D9A       0.533000
      6 C5           1.0050    -1.7050    -0.1380 c3         1 D9A       0.117300
      7 O6           0.5670    -0.3690    -0.4930 os         1 D9A      -0.406000
      8 C7          -0.8450    -0.0820    -0.3980 c3         1 D9A       0.271900
      9 C8          -2.1570    -2.6970     2.0900 ca         1 D9A      -0.137000
     10 C9          -2.4640    -1.9060     3.2080 ca         1 D9A      -0.098000
     11 C10         -2.2550    -0.5230     3.1630 ca         1 D9A       0.102000
     12 C11         -1.7210     0.0680     2.0110 ca         1 D9A      -0.051000
     13 C12         -1.0610     1.4350    -0.4990 ca         1 D9A      -0.084300
     14 C13         -0.0210     2.3380    -0.1830 ca         1 D9A      -0.051000
     15 C14         -0.2300     3.7230    -0.2620 ca         1 D9A      -0.073000
     16 C15         -1.4770     4.2290    -0.6600 ca         1 D9A      -0.191000
     17 C16         -2.5350     3.3470    -0.9740 ca         1 D9A       0.066100
     18 C17         -2.3250     1.9450    -0.8770 ca         1 D9A       0.063100
     19 O18         -3.7630     3.8230    -1.4030 os         1 D9A      -0.351100
     20 C19         -4.0500     5.2270    -1.5320 c3         1 D9A       0.155900
     21 O20         -3.3360     1.0490    -1.1620 os         1 D9A      -0.362100
     22 C21         -4.5440     1.0420    -0.3790 c3         1 D9A       0.159900
     23 O22          0.4900    -3.5580    -1.6330 o          1 D9A      -0.539000
     24 C23         -2.0660    -4.1020    -0.6320 c3         1 D9A       0.108000
     25 C24         -3.1590    -3.7500    -1.6910 c3         1 D9A      -0.059000
     26 C25         -2.5160    -3.1780    -2.9820 c3         1 D9A      -0.084100
     27 C26         -3.9250    -5.0500    -2.0510 c3         1 D9A      -0.084100
     28 C27         -4.1700    -2.7210    -1.1210 c3         1 D9A      -0.084100
     29 C28          2.4840    -1.7970    -0.5800 c3         1 D9A      -0.156400
     30 C29          3.3390    -0.8120     0.2160 c          1 D9A       0.586100
     31 N30          3.7200     0.3180    -0.4740 ns         1 D9A      -0.428900
     32 C31          4.5670     1.4120     0.0540 c3         1 D9A      -0.015300
     33 C32          6.0300     1.3240    -0.4690 c3         1 D9A      -0.204400
     34 C33          6.7330     0.0440     0.0100 c          1 D9A       0.709000
     35 O34          6.7060    -0.9410    -0.7130 o          1 D9A      -0.767000
     36 O35          7.3150     0.0740     1.0840 o          1 D9A      -0.767000
     37 O36          3.6680    -1.0270     1.3750 o          1 D9A      -0.665100
     38 C38          3.9100     2.7930    -0.2740 c          1 D9A       0.733000
     39 O39          3.5770     3.0230    -1.4290 o          1 D9A      -0.757000
     40 O40          3.6560     3.5500     0.6540 o          1 D9A      -0.757000
     41 H5           0.9710    -1.8370     0.9510 h1         1 D9A       0.078700
     42 H7          -1.3550    -0.5350    -1.2570 h1         1 D9A       0.057700
     43 H8          -2.2720    -3.7740     2.1750 ha         1 D9A       0.112000
     44 H9          -2.8410    -2.3690     4.1160 ha         1 D9A       0.115000
     45 H11         -1.5400     1.1390     2.0150 ha         1 D9A       0.150000
     46 H13          0.9560     1.9730     0.1300 ha         1 D9A       0.219000
     47 H14          0.5830     4.4050    -0.0200 ha         1 D9A       0.148000
     48 H15         -1.5980     5.3060    -0.7220 ha         1 D9A       0.102000
     49 H19         -5.0800     5.3720    -1.8810 h1         1 D9A       0.029033
     50 H19A        -3.9440     5.7360    -0.5650 h1         1 D9A       0.029033
     51 H19B        -3.3750     5.6980    -2.2570 h1         1 D9A       0.029033
     52 H21         -4.3120     0.8860     0.6830 h1         1 D9A       0.027033
     53 H21A        -5.0980     1.9820    -0.4780 h1         1 D9A       0.027033
     54 H21B        -5.2020     0.2280    -0.7060 h1         1 D9A       0.027033
     55 H23         -1.4280    -4.8980    -1.0360 h1         1 D9A       0.050200
     56 H23A        -2.5670    -4.5450     0.2340 h1         1 D9A       0.050200
     57 H25         -1.7910    -3.8840    -3.4050 hc         1 D9A       0.033811
     58 H25A        -3.2800    -2.9810    -3.7450 hc         1 D9A       0.033811
     59 H25B        -1.9950    -2.2340    -2.7840 hc         1 D9A       0.033811
     60 H26         -4.4060    -5.4800    -1.1630 hc         1 D9A       0.033811
     61 H26A        -4.7060    -4.8550    -2.7960 hc         1 D9A       0.033811
     62 H26B        -3.2450    -5.8050    -2.4650 hc         1 D9A       0.033811
     63 H27         -3.6880    -1.7560    -0.9370 hc         1 D9A       0.033811
     64 H27A        -4.9940    -2.5480    -1.8250 hc         1 D9A       0.033811
     65 H27B        -4.6000    -3.0730    -0.1760 hc         1 D9A       0.033811
     66 H28          2.8440    -2.8120    -0.3770 hc         1 D9A       0.067700
     67 H28A         2.5430    -1.5850    -1.6540 hc         1 D9A       0.067700
     68 HN30         3.3590     0.4140    -1.4160 hn         1 D9A       0.352500
     69 H31          4.5950     1.3290     1.1480 h1         1 D9A       0.037700
     70 H32          5.9660     1.3400    -1.5640 hc         1 D9A       0.035200
     71 H32A         6.5340     2.2010    -0.0470 hc         1 D9A       0.035200
@<TRIPOS>BOND
     1     1     3 ar  
     2     1     8 1   
     3     1    12 ar  
     4     2    11 1   
     5     3     4 1   
     6     3     9 ar  
     7     4     5 1   
     8     4    24 1   
     9     5     6 1   
    10     5    23 2   
    11     6     7 1   
    12     6    29 1   
    13     6    41 1   
    14     7     8 1   
    15     8    13 1   
    16     8    42 1   
    17     9    10 ar  
    18     9    43 1   
    19    10    11 ar  
    20    10    44 1   
    21    11    12 ar  
    22    12    45 1   
    23    13    14 ar  
    24    13    18 ar  
    25    14    15 ar  
    26    14    46 1   
    27    15    16 ar  
    28    15    47 1   
    29    16    17 ar  
    30    16    48 1   
    31    17    18 ar  
    32    17    19 1   
    33    18    21 1   
    34    19    20 1   
    35    20    49 1   
    36    20    50 1   
    37    20    51 1   
    38    21    22 1   
    39    22    52 1   
    40    22    53 1   
    41    22    54 1   
    42    24    25 1   
    43    24    55 1   
    44    24    56 1   
    45    25    26 1   
    46    25    27 1   
    47    25    28 1   
    48    26    57 1   
    49    26    58 1   
    50    26    59 1   
    51    27    60 1   
    52    27    61 1   
    53    27    62 1   
    54    28    63 1   
    55    28    64 1   
    56    28    65 1   
    57    29    30 1   
    58    29    66 1   
    59    29    67 1   
    60    30    31 1   
    61    30    37 2   
    62    31    32 1   
    63    31    68 1   
    64    32    33 1   
    65    32    38 1   
    66    32    69 1   
    67    33    34 1   
    68    33    70 1   
    69    33    71 1   
    70    34    35 1   
    71    34    36 1   
    72    38    39 1   
    73    38    40 1   
@<TRIPOS>SUBSTRUCTURE
     1 D9A         1 TEMP              0 ****  ****    0 ROOT
