@<TRIPOS>MOLECULE
D9A
   71    73     1     0     0
SMALL
abcg2


@<TRIPOS>ATOM
      1 C1          -1.5590    -0.6830     0.8200 ca         1 D9A      -0.100300
      2 CL1         -3.2020     0.6010     4.2220 cl         1 D9A      -0.223000
      3 C2          -1.6960    -2.0720     0.9270 ca         1 D9A      -0.015000
      4 N3          -1.2040    -2.9170    -0.0980 n          1 D9A      -0.243400
      5 C4           0.0720    -2.7790    -0.5680 c          1 D9A       0.533000
      6 C5           0.8920    -1.6520     0.0670 c3         1 D9A       0.117300
      7 O6           0.4870    -0.3970    -0.4320 os         1 D9A      -0.406000
      8 C7          -0.8960    -0.1110    -0.4130 c3         1 D9A       0.271900
      9 C8          -2.3070    -2.6170     2.0520 ca         1 D9A      -0.137000
     10 C9          -2.7830    -1.8040     3.0660 ca         1 D9A      -0.098000
     11 C10         -2.6210    -0.4330     2.9600 ca         1 D9A       0.102000
     12 C11         -2.0000     0.1260     1.8580 ca         1 D9A      -0.051000
     13 C12         -1.0530     1.3830    -0.5580 ca         1 D9A      -0.084300
     14 C13          0.0120     2.2480    -0.3140 ca         1 D9A      -0.051000
     15 C14         -0.1680     3.6130    -0.4540 ca         1 D9A      -0.073000
     16 C15         -1.3890     4.1360    -0.8600 ca         1 D9A      -0.191000
     17 C16         -2.4520     3.2800    -1.1250 ca         1 D9A       0.066100
     18 C17         -2.2850     1.8970    -0.9500 ca         1 D9A       0.063100
     19 O18         -3.6630     3.6780    -1.5580 os         1 D9A      -0.351100
     20 C19         -3.8820     5.0580    -1.7690 c3         1 D9A       0.155900
     21 O20         -3.3000     1.0290    -1.2000 os         1 D9A      -0.362100
     22 C21         -4.4740     1.1400    -0.4020 c3         1 D9A       0.159900
     23 O22          0.5360    -3.5030    -1.4280 o          1 D9A      -0.539000
     24 C23         -2.0240    -4.0300    -0.5780 c3         1 D9A       0.108000
     25 C24         -3.0870    -3.6780    -1.6310 c3         1 D9A      -0.059000
     26 C25         -2.4550    -3.0540    -2.8730 c3         1 D9A      -0.084100
     27 C26         -3.7520    -5.0010    -2.0190 c3         1 D9A      -0.084100
     28 C27         -4.1480    -2.7340    -1.0660 c3         1 D9A      -0.084100
     29 C28          2.3690    -1.7720    -0.2390 c3         1 D9A      -0.156400
     30 C29          3.1510    -0.7290     0.5410 c          1 D9A       0.586100
     31 N30          4.0010     0.0040    -0.1730 ns         1 D9A      -0.428900
     32 C31          4.9150     0.9460     0.4310 c3         1 D9A      -0.015300
     33 C32          5.7190     1.6500    -0.6700 c3         1 D9A      -0.204400
     34 C33          6.4880     0.6940    -1.5960 c          1 D9A       0.709000
     35 O34          5.7860    -0.0690    -2.3060 o          1 D9A      -0.767000
     36 O35          7.7310     0.7400    -1.5850 o          1 D9A      -0.767000
     37 O36          3.0160    -0.6190     1.7560 o          1 D9A      -0.665100
     38 C38          4.1960     2.0350     1.2670 c          1 D9A       0.733000
     39 O39          3.1540     2.5170     0.7890 o          1 D9A      -0.757000
     40 O40          4.7750     2.3860     2.3140 o          1 D9A      -0.757000
     41 H5           0.7680    -1.6960     1.1570 h1         1 D9A       0.078700
     42 H7          -1.3680    -0.5920    -1.2820 h1         1 D9A       0.057700
     43 H8          -2.4080    -3.6880     2.1600 ha         1 D9A       0.112000
     44 H9          -3.2580    -2.2420     3.9330 ha         1 D9A       0.115000
     45 H11         -1.8770     1.1990     1.7940 ha         1 D9A       0.150000
     46 H13          0.9790     1.8700    -0.0110 ha         1 D9A       0.219000
     47 H14          0.6570     4.2840    -0.2530 ha         1 D9A       0.148000
     48 H15         -1.4960     5.2060    -0.9750 ha         1 D9A       0.102000
     49 H19         -4.9050     5.1560    -2.1240 h1         1 D9A       0.029033
     50 H19A        -3.7720     5.6380    -0.8490 h1         1 D9A       0.029033
     51 H19B        -3.2070     5.4670    -2.5260 h1         1 D9A       0.029033
     52 H21         -4.2500     1.4950     0.6060 h1         1 D9A       0.027033
     53 H21A        -5.2110     1.8030    -0.8550 h1         1 D9A       0.027033
     54 H21B        -4.9020     0.1420    -0.3230 h1         1 D9A       0.027033
     55 H23         -1.3490    -4.7770    -0.9920 h1         1 D9A       0.050200
     56 H23A        -2.5150    -4.4960     0.2760 h1         1 D9A       0.050200
     57 H25         -1.6950    -3.7060    -3.3070 hc         1 D9A       0.033811
     58 H25A        -3.2160    -2.8770    -3.6360 hc         1 D9A       0.033811
     59 H25B        -1.9860    -2.0930    -2.6540 hc         1 D9A       0.033811
     60 H26         -4.2080    -5.4900    -1.1550 hc         1 D9A       0.033811
     61 H26A        -4.5360    -4.8330    -2.7580 hc         1 D9A       0.033811
     62 H26B        -3.0290    -5.6950    -2.4540 hc         1 D9A       0.033811
     63 H27         -3.7420    -1.7500    -0.8300 hc         1 D9A       0.033811
     64 H27A        -4.9460    -2.5870    -1.7970 hc         1 D9A       0.033811
     65 H27B        -4.6030    -3.1340    -0.1570 hc         1 D9A       0.033811
     66 H28          2.7240    -2.7550     0.0800 hc         1 D9A       0.067700
     67 H28A         2.5440    -1.6990    -1.3130 hc         1 D9A       0.067700
     68 HN30         4.1810    -0.2160    -1.1480 hn         1 D9A       0.352500
     69 H31          5.6110     0.4100     1.0870 h1         1 D9A       0.037700
     70 H32          5.0210     2.2420    -1.2710 hc         1 D9A       0.035200
     71 H32A         6.4050     2.3470    -0.1860 hc         1 D9A       0.035200
@<TRIPOS>BOND
     1     1     3 ar  
     2     1     8 1   
     3     1    12 ar  
     4     2    11 1   
     5     3     4 1   
     6     3     9 ar  
     7     4     5 1   
     8     4    24 1   
     9     5     6 1   
    10     5    23 2   
    11     6     7 1   
    12     6    29 1   
    13     6    41 1   
    14     7     8 1   
    15     8    13 1   
    16     8    42 1   
    17     9    10 ar  
    18     9    43 1   
    19    10    11 ar  
    20    10    44 1   
    21    11    12 ar  
    22    12    45 1   
    23    13    14 ar  
    24    13    18 ar  
    25    14    15 ar  
    26    14    46 1   
    27    15    16 ar  
    28    15    47 1   
    29    16    17 ar  
    30    16    48 1   
    31    17    18 ar  
    32    17    19 1   
    33    18    21 1   
    34    19    20 1   
    35    20    49 1   
    36    20    50 1   
    37    20    51 1   
    38    21    22 1   
    39    22    52 1   
    40    22    53 1   
    41    22    54 1   
    42    24    25 1   
    43    24    55 1   
    44    24    56 1   
    45    25    26 1   
    46    25    27 1   
    47    25    28 1   
    48    26    57 1   
    49    26    58 1   
    50    26    59 1   
    51    27    60 1   
    52    27    61 1   
    53    27    62 1   
    54    28    63 1   
    55    28    64 1   
    56    28    65 1   
    57    29    30 1   
    58    29    66 1   
    59    29    67 1   
    60    30    31 1   
    61    30    37 2   
    62    31    32 1   
    63    31    68 1   
    64    32    33 1   
    65    32    38 1   
    66    32    69 1   
    67    33    34 1   
    68    33    70 1   
    69    33    71 1   
    70    34    35 1   
    71    34    36 1   
    72    38    39 1   
    73    38    40 1   
@<TRIPOS>SUBSTRUCTURE
     1 D9A         1 TEMP              0 ****  ****    0 ROOT
