@<TRIPOS>MOLECULE
D9B
   46    48     1     0     0
SMALL
abcg2


@<TRIPOS>ATOM
      1 C01         -2.3540    -3.7990    -0.3740 c3         1 D9B       0.150100
      2 C03         -4.0270    -4.2620     1.2550 c3         1 D9B       0.150100
      3 C04         -3.6270    -1.9960     0.5790 c3         1 D9B       0.142800
      4 C05         -3.7720    -1.0730    -0.6280 c3         1 D9B       0.119000
      5 C07         -4.7070     1.1500    -0.0160 c          1 D9B       0.684100
      6 C10         -2.8470     2.2870     0.3250 ca         1 D9B       0.020100
      7 C11         -2.4740     1.0050    -0.0320 ca         1 D9B       0.019600
      8 C12         -1.1540     0.6130    -0.1230 ca         1 D9B      -0.133000
      9 C13         -0.1930     1.5900     0.1670 ca         1 D9B      -0.005000
     10 C15          1.8460     0.1980    -0.1300 c          1 D9B       0.647300
     11 C17          3.3230     0.2670    -0.0140 cc         1 D9B      -0.296200
     12 C18          4.0330    -0.8070    -0.4730 cd         1 D9B       0.046600
     13 C21          6.1610     0.1500     0.1180 c          1 D9B       0.550200
     14 C23          5.4220     1.2790     0.6140 cd         1 D9B      -0.322200
     15 C24          4.0690     1.3340     0.5510 cc         1 D9B      -0.071000
     16 C25         -0.5830     2.8880     0.5210 ca         1 D9B      -0.179000
     17 C26         -1.9200     3.2600     0.6060 ca         1 D9B      -0.044000
     18 N02         -3.6290    -3.3850     0.1730 n3         1 D9B      -0.716600
     19 N06         -3.6530     0.3190    -0.2540 n          1 D9B      -0.315000
     20 N19          5.3730    -0.8720    -0.4190 n          1 D9B      -0.264000
     21 O08         -5.8850     0.9190    -0.0860 o          1 D9B      -0.506000
     22 O09         -4.2100     2.3680     0.3320 os         1 D9B      -0.281200
     23 O16          1.2850    -0.8400    -0.4470 o          1 D9B      -0.605100
     24 O22          7.3790     0.0350     0.1390 o          1 D9B      -0.535000
     25 H012        -1.5320    -3.7320     0.3560 h1         1 D9B       0.033200
     26 H011        -2.4150    -4.8340    -0.7130 h1         1 D9B       0.033200
     27 H013        -2.0780    -3.1970    -1.2410 h1         1 D9B       0.033200
     28 H033        -3.3220    -4.2630     2.1000 h1         1 D9B       0.033200
     29 H032        -5.0070    -3.9700     1.6350 h1         1 D9B       0.033200
     30 H031        -4.1030    -5.2870     0.8890 h1         1 D9B       0.033200
     31 H042        -2.7240    -1.7300     1.1540 h1         1 D9B       0.043700
     32 H041        -4.4770    -1.8220     1.2420 h1         1 D9B       0.043700
     33 H051        -3.0160    -1.2750    -1.3880 h1         1 D9B       0.073700
     34 H052        -4.7420    -1.2210    -1.0970 h1         1 D9B       0.073700
     35 H121        -0.8800    -0.3900    -0.4040 ha         1 D9B       0.163000
     36 H181         3.5350    -1.6620    -0.9080 h4         1 D9B       0.225000
     37 H202         6.7550    -1.7660    -1.7250 h1         1 D9B       0.061700
     38 H201         6.6240    -2.5360    -0.1360 h1         1 D9B       0.061700
     39 H203         5.3340    -2.7430    -1.3290 h1         1 D9B       0.061700
     40 H231         5.9900     2.0880     1.0500 ha         1 D9B       0.214000
     41 H241         3.5820     2.2090     0.9620 ha         1 D9B       0.181000
     42 H251         0.1760     3.6290     0.7380 ha         1 D9B       0.116000
     43 H261        -2.2030     4.2660     0.8810 ha         1 D9B       0.139000
     44 H141         1.7400     2.1700     0.3270 hn         1 D9B       0.155000
     45 N14          1.1840     1.3530     0.1320 ns         1 D9B      -0.138000
     46 C20          6.0660    -2.0470    -0.9320 c3         1 D9B       0.070300
@<TRIPOS>BOND
     1     1    18 1   
     2     1    25 1   
     3     1    26 1   
     4     1    27 1   
     5     2    18 1   
     6     2    28 1   
     7     2    29 1   
     8     2    30 1   
     9     3     4 1   
    10     3    18 1   
    11     3    31 1   
    12     3    32 1   
    13     4    19 1   
    14     4    33 1   
    15     4    34 1   
    16     5    19 1   
    17     5    21 2   
    18     5    22 1   
    19     6     7 ar  
    20     6    17 ar  
    21     6    22 1   
    22     7     8 ar  
    23     7    19 1   
    24     8     9 ar  
    25     8    35 1   
    26     9    16 ar  
    27     9    45 1   
    28    10    11 1   
    29    10    23 2   
    30    10    45 1   
    31    11    12 2   
    32    11    15 1   
    33    12    20 1   
    34    12    36 1   
    35    13    14 1   
    36    13    20 1   
    37    13    24 2   
    38    14    15 2   
    39    14    40 1   
    40    15    41 1   
    41    16    17 ar  
    42    16    42 1   
    43    17    43 1   
    44    20    46 1   
    45    37    46 1   
    46    38    46 1   
    47    39    46 1   
    48    44    45 1   
@<TRIPOS>SUBSTRUCTURE
     1 D9B         1 TEMP              0 ****  ****    0 ROOT
