@<TRIPOS>MOLECULE
D9B
   46    48     1     0     0
SMALL
No Charge or Current Charge


@<TRIPOS>ATOM
      1 C01         -2.9650    -3.9550    -0.8560 c3         1 D9B       0.150100
      2 C03         -3.9260    -4.4070     1.3570 c3         1 D9B       0.150100
      3 C04         -3.6780    -2.0730     0.6090 c3         1 D9B       0.142800
      4 C05         -3.8790    -1.0180    -0.5050 c3         1 D9B       0.119000
      5 C07         -4.7800     1.2380     0.2440 c          1 D9B       0.684100
      6 C10         -2.8320     2.3730     0.2760 ca         1 D9B       0.020100
      7 C11         -2.4960     1.0780    -0.0400 ca         1 D9B       0.019600
      8 C12         -1.1660     0.6420    -0.0460 ca         1 D9B      -0.133000
      9 C13         -0.1490     1.6160     0.1400 ca         1 D9B      -0.005000
     10 C15          1.9330     0.1510    -0.2140 c          1 D9B       0.647300
     11 C17          3.4170     0.2540    -0.0670 cc         1 D9B      -0.296200
     12 C18          4.1860    -0.8550    -0.3850 cd         1 D9B       0.046600
     13 C21          6.2920     0.2780     0.1580 c          1 D9B       0.550200
     14 C23          5.4590     1.4440     0.4910 cd         1 D9B      -0.322200
     15 C24          4.0870     1.4490     0.3890 cc         1 D9B      -0.071000
     16 C25         -0.5110     2.9660     0.3990 ca         1 D9B      -0.179000
     17 C26         -1.8660     3.3580     0.4900 ca         1 D9B      -0.044000
     18 N02         -3.8990    -3.4870     0.1970 n3         1 D9B      -0.716600
     19 N06         -3.7100     0.3630    -0.0180 n          1 D9B      -0.315000
     20 N19          5.5780    -0.8570    -0.2810 n          1 D9B      -0.264000
     21 O08         -5.9760     0.9840     0.2400 o          1 D9B      -0.506000
     22 O09         -4.1910     2.4740     0.4140 os         1 D9B      -0.281200
     23 O16          1.3910    -0.8770    -0.6040 o          1 D9B      -0.605100
     24 O22          7.5110     0.3020     0.2570 o          1 D9B      -0.535000
     25 H012        -1.9230    -3.8930    -0.5120 h1         1 D9B       0.033200
     26 H011        -3.1750    -4.9990    -1.1230 h1         1 D9B       0.033200
     27 H013        -3.0630    -3.3560    -1.7710 h1         1 D9B       0.033200
     28 H033        -2.9500    -4.4290     1.8620 h1         1 D9B       0.033200
     29 H032        -4.6840    -4.0920     2.0860 h1         1 D9B       0.033200
     30 H031        -4.1710    -5.4280     1.0370 h1         1 D9B       0.033200
     31 H042        -2.6640    -1.9570     1.0160 h1         1 D9B       0.043700
     32 H041        -4.3740    -1.8210     1.4210 h1         1 D9B       0.043700
     33 H051        -3.1570    -1.1900    -1.3120 h1         1 D9B       0.073700
     34 H052        -4.8850    -1.1350    -0.9290 h1         1 D9B       0.073700
     35 H121        -0.9470    -0.4100    -0.1900 ha         1 D9B       0.163000
     36 H181         3.7720    -1.7980    -0.7360 h4         1 D9B       0.225000
     37 H202         7.0490    -1.8400    -1.4500 h1         1 D9B       0.061700
     38 H201         6.9210    -2.4130     0.2390 h1         1 D9B       0.061700
     39 H203         5.6850    -2.8790    -0.9600 h1         1 D9B       0.061700
     40 H231         6.0130     2.3140     0.8280 ha         1 D9B       0.214000
     41 H241         3.5340     2.3480     0.6530 ha         1 D9B       0.181000
     42 H251         0.2640     3.7120     0.5590 ha         1 D9B       0.116000
     43 H261        -2.1480     4.3790     0.7370 ha         1 D9B       0.139000
     44 H141         1.8280     2.0770     0.3980 hn         1 D9B       0.155000
     45 N14          1.2390     1.3070     0.1180 ns         1 D9B      -0.138000
     46 C20          6.3510    -2.0700    -0.6350 c3         1 D9B       0.070300
@<TRIPOS>BOND
     1     1    18 1   
     2     1    25 1   
     3     1    26 1   
     4     1    27 1   
     5     2    18 1   
     6     2    28 1   
     7     2    29 1   
     8     2    30 1   
     9     3     4 1   
    10     3    18 1   
    11     3    31 1   
    12     3    32 1   
    13     4    19 1   
    14     4    33 1   
    15     4    34 1   
    16     5    19 1   
    17     5    21 2   
    18     5    22 1   
    19     6     7 ar  
    20     6    17 ar  
    21     6    22 1   
    22     7     8 ar  
    23     7    19 1   
    24     8     9 ar  
    25     8    35 1   
    26     9    16 ar  
    27     9    45 1   
    28    10    11 1   
    29    10    23 2   
    30    10    45 1   
    31    11    12 2   
    32    11    15 1   
    33    12    20 1   
    34    12    36 1   
    35    13    14 1   
    36    13    20 1   
    37    13    24 2   
    38    14    15 2   
    39    14    40 1   
    40    15    41 1   
    41    16    17 ar  
    42    16    42 1   
    43    17    43 1   
    44    20    46 1   
    45    37    46 1   
    46    38    46 1   
    47    39    46 1   
    48    44    45 1   
@<TRIPOS>SUBSTRUCTURE
     1 D9B         1 TEMP              0 ****  ****    0 ROOT
