@<TRIPOS>MOLECULE
D9C
   45    48     1     0     0
SMALL
No Charge or Current Charge


@<TRIPOS>ATOM
      1 C4         -12.3010     6.9630    -1.2330 ca         1 D9C      -0.009000
      2 C14         -5.3210     7.1750     2.2100 ca         1 D9C      -0.198000
      3 C5         -11.5230     7.7050    -2.1430 ca         1 D9C      -0.197000
      4 C6         -10.1040     7.7290    -2.0320 ca         1 D9C       0.154100
      5 C11         -7.2710     7.0740     0.1670 ca         1 D9C       0.262300
      6 C7         -12.1900     5.3700     0.8270 c          1 D9C       0.322800
      7 C8          -9.9010     5.5320     1.0890 cc         1 D9C       0.058700
      8 C9          -8.6860     5.5770     1.7360 cd         1 D9C      -0.122000
      9 C10         -7.4910     6.3710     1.3860 ca         1 D9C      -0.080000
     10 C12         -6.0800     7.8300    -0.0030 ca         1 D9C       0.066100
     11 C13         -5.1070     7.8850     1.0160 ca         1 D9C       0.139100
     12 N1         -11.0720     4.9330     1.5530 n          1 D9C      -0.231700
     13 C3         -11.6360     6.2800    -0.2090 ca         1 D9C      -0.159000
     14 C1          -9.4580     7.0390    -0.9660 ca         1 D9C       0.238300
     15 C15         -6.4960     6.4300     2.3850 ca         1 D9C      -0.060000
     16 C16        -11.1820     4.0330     2.7170 c3         1 D9C       0.068900
     17 C17         -9.8800     9.1300    -4.0650 c3         1 D9C       0.144900
     18 C18         -6.5590     9.7330    -1.4320 c3         1 D9C       0.165600
     19 C19         -6.2040    10.2020    -2.8520 c3         1 D9C      -0.090100
     20 C2         -10.2560     6.3420    -0.0540 ca         1 D9C      -0.061800
     21 C20         -2.9190     8.7470     1.7900 c3         1 D9C       0.144900
     22 O1          -8.0840     6.9450    -0.9450 os         1 D9C      -0.475600
     23 O2         -13.3600     5.0700     1.0040 o          1 D9C      -0.323000
     24 O3          -9.3210     8.3980    -2.9610 os         1 D9C      -0.322100
     25 O4          -5.8450     8.5130    -1.1830 os         1 D9C      -0.339100
     26 O5          -3.9620     8.6360     0.8060 os         1 D9C      -0.326100
     27 H1         -13.3830     6.9060    -1.3330 ha         1 D9C       0.136000
     28 H2          -4.5940     7.1890     3.0170 ha         1 D9C       0.123000
     29 H3         -12.0350     8.2270    -2.9460 ha         1 D9C       0.125000
     30 H5          -8.6180     4.9860     2.6420 ha         1 D9C       0.118000
     31 H7          -6.6380     5.9000     3.3240 ha         1 D9C       0.114000
     32 H8         -10.3700     3.2960     2.6920 h1         1 D9C       0.049367
     33 H9         -11.1110     4.6190     3.6420 h1         1 D9C       0.049367
     34 H10        -12.1410     3.5020     2.7000 h1         1 D9C       0.049367
     35 H11         -9.0790     9.5820    -4.6640 h1         1 D9C       0.046700
     36 H12        -10.4600     8.4680    -4.7200 h1         1 D9C       0.046700
     37 H13        -10.5320     9.9370    -3.7080 h1         1 D9C       0.046700
     38 H14         -6.2700    10.5030    -0.7050 h1         1 D9C       0.031200
     39 H15         -7.6420     9.5800    -1.3550 h1         1 D9C       0.031200
     40 H16         -6.7330    11.1330    -3.0870 hc         1 D9C       0.043367
     41 H17         -5.1270    10.3870    -2.9400 hc         1 D9C       0.043367
     42 H18         -6.4930     9.4460    -3.5910 hc         1 D9C       0.043367
     43 H19         -2.1110     9.3880     1.4170 h1         1 D9C       0.044033
     44 H20         -3.3030     9.1910     2.7180 h1         1 D9C       0.044033
     45 H21         -2.4920     7.7620     2.0200 h1         1 D9C       0.044033
@<TRIPOS>BOND
     1     1     3 ar  
     2     1    13 ar  
     3     1    27 1   
     4     2    11 ar  
     5     2    15 ar  
     6     2    28 1   
     7     3     4 ar  
     8     3    29 1   
     9     4    14 ar  
    10     4    24 1   
    11     5     9 ar  
    12     5    10 ar  
    13     5    22 1   
    14     6    12 1   
    15     6    13 1   
    16     6    23 2   
    17     7     8 2   
    18     7    12 1   
    19     7    20 1   
    20     8     9 1   
    21     8    30 1   
    22     9    15 ar  
    23    10    11 ar  
    24    10    25 1   
    25    11    26 1   
    26    12    16 1   
    27    13    20 ar  
    28    14    20 ar  
    29    14    22 1   
    30    15    31 1   
    31    16    32 1   
    32    16    33 1   
    33    16    34 1   
    34    17    24 1   
    35    17    35 1   
    36    17    36 1   
    37    17    37 1   
    38    18    19 1   
    39    18    25 1   
    40    18    38 1   
    41    18    39 1   
    42    19    40 1   
    43    19    41 1   
    44    19    42 1   
    45    21    26 1   
    46    21    43 1   
    47    21    44 1   
    48    21    45 1   
@<TRIPOS>SUBSTRUCTURE
     1 D9C         1 TEMP              0 ****  ****    0 ROOT
