@<TRIPOS>MOLECULE
D9C
   45    48     1     0     0
SMALL
abcg2


@<TRIPOS>ATOM
      1 C4         -12.2360     7.0120    -1.2460 ca         1 D9C      -0.009000
      2 C14         -5.3470     7.1440     2.1270 ca         1 D9C      -0.198000
      3 C5         -11.4320     7.6930    -2.1570 ca         1 D9C      -0.197000
      4 C6         -10.0330     7.6710    -2.0540 ca         1 D9C       0.154100
      5 C11         -7.2710     6.9530     0.1130 ca         1 D9C       0.262300
      6 C7         -12.1610     5.4620     0.8520 c          1 D9C       0.322800
      7 C8          -9.8630     5.5460     1.0830 cc         1 D9C       0.058700
      8 C9          -8.6580     5.4650     1.6720 cd         1 D9C      -0.122000
      9 C10         -7.4780     6.2420     1.3160 ca         1 D9C      -0.080000
     10 C12         -6.1510     7.7590    -0.0650 ca         1 D9C       0.066100
     11 C13         -5.1780     7.8630     0.9490 ca         1 D9C       0.139100
     12 N1         -11.0610     4.9930     1.5580 n          1 D9C      -0.231700
     13 C3         -11.6190     6.3320    -0.2100 ca         1 D9C      -0.159000
     14 C1          -9.4190     6.9660    -0.9990 ca         1 D9C       0.238300
     15 C15         -6.4800     6.3600     2.2900 ca         1 D9C      -0.060000
     16 C16        -11.1620     4.1720     2.7440 c3         1 D9C       0.068900
     17 C17         -9.7610     9.0040    -4.0200 c3         1 D9C       0.144900
     18 C18         -6.5830     9.7080    -1.3270 c3         1 D9C       0.165600
     19 C19         -6.2560    10.3070    -2.6740 c3         1 D9C      -0.090100
     20 C2         -10.2270     6.3370    -0.0800 ca         1 D9C      -0.061800
     21 C20         -3.1170     8.8170     1.6740 c3         1 D9C       0.144900
     22 O1          -8.0550     6.8200    -1.0230 os         1 D9C      -0.475600
     23 O2         -13.3270     5.1770     1.0960 o          1 D9C      -0.323000
     24 O3          -9.1980     8.2650    -2.9330 os         1 D9C      -0.322100
     25 O4          -5.9460     8.4120    -1.2470 os         1 D9C      -0.339100
     26 O5          -4.1260     8.6680     0.6740 os         1 D9C      -0.326100
     27 H1         -13.3110     7.0110    -1.3590 ha         1 D9C       0.136000
     28 H2          -4.6140     7.1900     2.9170 ha         1 D9C       0.123000
     29 H3         -11.8960     8.2280    -2.9720 ha         1 D9C       0.125000
     30 H5          -8.5640     4.8790     2.5780 ha         1 D9C       0.118000
     31 H7          -6.6100     5.8210     3.2200 ha         1 D9C       0.114000
     32 H8         -10.5500     3.2750     2.6390 h1         1 D9C       0.049367
     33 H9         -10.8340     4.7240     3.6270 h1         1 D9C       0.049367
     34 H10        -12.2030     3.8850     2.8660 h1         1 D9C       0.049367
     35 H11         -8.9130     9.3950    -4.5760 h1         1 D9C       0.046700
     36 H12        -10.3600     8.3570    -4.6630 h1         1 D9C       0.046700
     37 H13        -10.3740     9.8300    -3.6520 h1         1 D9C       0.046700
     38 H14         -6.2090    10.3330    -0.5110 h1         1 D9C       0.031200
     39 H15         -7.6600     9.5780    -1.2070 h1         1 D9C       0.031200
     40 H16         -6.7370    11.2820    -2.7690 hc         1 D9C       0.043367
     41 H17         -5.1790    10.4410    -2.7880 hc         1 D9C       0.043367
     42 H18         -6.6190     9.6650    -3.4770 hc         1 D9C       0.043367
     43 H19         -2.3810     9.4970     1.2520 h1         1 D9C       0.044033
     44 H20         -3.5350     9.2460     2.5880 h1         1 D9C       0.044033
     45 H21         -2.6460     7.8590     1.9010 h1         1 D9C       0.044033
@<TRIPOS>BOND
     1     1     3 ar  
     2     1    13 ar  
     3     1    27 1   
     4     2    11 ar  
     5     2    15 ar  
     6     2    28 1   
     7     3     4 ar  
     8     3    29 1   
     9     4    14 ar  
    10     4    24 1   
    11     5     9 ar  
    12     5    10 ar  
    13     5    22 1   
    14     6    12 1   
    15     6    13 1   
    16     6    23 2   
    17     7     8 2   
    18     7    12 1   
    19     7    20 1   
    20     8     9 1   
    21     8    30 1   
    22     9    15 ar  
    23    10    11 ar  
    24    10    25 1   
    25    11    26 1   
    26    12    16 1   
    27    13    20 ar  
    28    14    20 ar  
    29    14    22 1   
    30    15    31 1   
    31    16    32 1   
    32    16    33 1   
    33    16    34 1   
    34    17    24 1   
    35    17    35 1   
    36    17    36 1   
    37    17    37 1   
    38    18    19 1   
    39    18    25 1   
    40    18    38 1   
    41    18    39 1   
    42    19    40 1   
    43    19    41 1   
    44    19    42 1   
    45    21    26 1   
    46    21    43 1   
    47    21    44 1   
    48    21    45 1   
@<TRIPOS>SUBSTRUCTURE
     1 D9C         1 TEMP              0 ****  ****    0 ROOT
