@<TRIPOS>MOLECULE
D9F
   63    63     1     0     0
SMALL
No Charge or Current Charge


@<TRIPOS>ATOM
      1 C02         10.8790    82.7650   105.8100 c          1 D9F       0.601300
      2 C03          9.7380    83.7280   105.7370 ce         1 D9F      -0.279200
      3 C04          9.6780    85.0730   105.9900 cf         1 D9F      -0.090000
      4 C05         10.7230    85.9730   106.4720 cf         1 D9F      -0.211000
      5 C06         10.5340    87.3010   106.6420 c2         1 D9F      -0.171200
      6 C07         11.5680    88.2750   107.1880 c3         1 D9F      -0.082200
      7 C08         11.4060    89.7510   106.7350 c3         1 D9F       0.214500
      8 C10         11.7180    89.9710   105.2690 c2         1 D9F      -0.227200
      9 C11         10.9940    89.5520   104.2050 ce         1 D9F      -0.152000
     10 C12         11.3710    89.7530   102.7970 ce         1 D9F      -0.188000
     11 C13         12.2070    90.7140   102.3460 c2         1 D9F      -0.209200
     12 C14         12.5470    90.9730   100.8900 c3         1 D9F      -0.084200
     13 C15         14.0680    90.9930   100.5760 c3         1 D9F       0.186300
     14 C17         14.7560    89.5950   100.6400 c3         1 D9F      -0.065400
     15 C18         15.7360    89.3660   101.8190 c3         1 D9F       0.208500
     16 C20         15.0670    89.3680   103.1750 c2         1 D9F      -0.258200
     17 C21         14.4700    88.3250   103.7970 ce         1 D9F      -0.166000
     18 C22         14.3600    86.9660   103.2550 ce         1 D9F      -0.206000
     19 C23         13.6970    85.9750   103.8870 c2         1 D9F      -0.188200
     20 C24         13.5620    84.5520   103.3880 c3         1 D9F      -0.045200
     21 C25         14.6000    83.5970   104.0220 c3         1 D9F      -0.064400
     22 C26         14.4950    83.3900   105.5590 c3         1 D9F      -0.078400
     23 C27         13.2810    82.5470   106.0280 c3         1 D9F       0.177300
     24 C28         13.4100    82.0920   107.4990 c3         1 D9F      -0.111100
     25 O01         10.7230    81.5640   105.6410 o          1 D9F      -0.498000
     26 O09         10.0870    90.2210   107.0200 oh         1 D9F      -0.656000
     27 O16         14.2360    91.5320    99.2570 oh         1 D9F      -0.646000
     28 O19         16.7650    90.3540   101.8100 oh         1 D9F      -0.643000
     29 O29         12.1010    83.3680   105.9360 os         1 D9F      -0.455100
     30 H1           8.8100    83.2440   105.4360 ha         1 D9F       0.201000
     31 H2           8.7010    85.5420   105.8430 ha         1 D9F       0.168000
     32 H3          11.6910    85.5510   106.7400 ha         1 D9F       0.195000
     33 H4           9.5630    87.7390   106.4030 ha         1 D9F       0.183000
     34 H5          12.5750    87.9420   106.9110 hc         1 D9F       0.053700
     35 H6          11.5380    88.2460   108.2840 hc         1 D9F       0.053700
     36 H7          12.1280    90.3440   107.3140 h1         1 D9F       0.033700
     37 H8          12.6450    90.5240   105.1190 ha         1 D9F       0.175000
     38 H9          10.0840    88.9730   104.3710 ha         1 D9F       0.192000
     39 H10         10.8740    89.0950   102.0800 ha         1 D9F       0.176000
     40 H11         12.6820    91.4100   103.0380 ha         1 D9F       0.166000
     41 H12         12.1180    91.9430   100.6100 hc         1 D9F       0.052200
     42 H13         12.0580    90.2340   100.2430 hc         1 D9F       0.052200
     43 H14         14.5540    91.6650   101.2970 h1         1 D9F       0.030700
     44 H15         15.3180    89.4230    99.7150 hc         1 D9F       0.062700
     45 H16         13.9910    88.8100   100.6660 hc         1 D9F       0.062700
     46 H17         16.2010    88.3830   101.6660 h1         1 D9F       0.033700
     47 H18         15.0790    90.3420   103.6670 ha         1 D9F       0.178000
     48 H19         14.0220    88.4810   104.7790 ha         1 D9F       0.166000
     49 H20         14.8410    86.7620   102.2980 ha         1 D9F       0.171000
     50 H21         13.2020    86.1630   104.8400 ha         1 D9F       0.165000
     51 H22         12.5470    84.1800   103.5660 hc         1 D9F       0.053700
     52 H23         13.6950    84.5300   102.2990 hc         1 D9F       0.053700
     53 H24         14.5310    82.6200   103.5280 hc         1 D9F       0.041700
     54 H25         15.6020    83.9820   103.7940 hc         1 D9F       0.041700
     55 H26         15.4080    82.8760   105.8820 hc         1 D9F       0.049200
     56 H27         14.4960    84.3590   106.0720 hc         1 D9F       0.049200
     57 H28         13.2110    81.6610   105.3810 h1         1 D9F       0.065700
     58 H29         12.5490    81.4830   107.7980 hc         1 D9F       0.046700
     59 H30         14.3130    81.4860   107.6350 hc         1 D9F       0.046700
     60 H31         13.4730    82.9580   108.1690 hc         1 D9F       0.046700
     61 H32          9.9510    90.1100   107.9860 ho         1 D9F       0.445000
     62 H33         13.9360    92.4660    99.2910 ho         1 D9F       0.436000
     63 H34         17.3930    90.1060   102.5220 ho         1 D9F       0.438000
@<TRIPOS>BOND
     1     1     2 1   
     2     1    25 2   
     3     1    29 1   
     4     2     3 2   
     5     2    30 1   
     6     3     4 1   
     7     3    31 1   
     8     4     5 2   
     9     4    32 1   
    10     5     6 1   
    11     5    33 1   
    12     6     7 1   
    13     6    34 1   
    14     6    35 1   
    15     7     8 1   
    16     7    26 1   
    17     7    36 1   
    18     8     9 2   
    19     8    37 1   
    20     9    10 1   
    21     9    38 1   
    22    10    11 2   
    23    10    39 1   
    24    11    12 1   
    25    11    40 1   
    26    12    13 1   
    27    12    41 1   
    28    12    42 1   
    29    13    14 1   
    30    13    27 1   
    31    13    43 1   
    32    14    15 1   
    33    14    44 1   
    34    14    45 1   
    35    15    16 1   
    36    15    28 1   
    37    15    46 1   
    38    16    17 2   
    39    16    47 1   
    40    17    18 1   
    41    17    48 1   
    42    18    19 2   
    43    18    49 1   
    44    19    20 1   
    45    19    50 1   
    46    20    21 1   
    47    20    51 1   
    48    20    52 1   
    49    21    22 1   
    50    21    53 1   
    51    21    54 1   
    52    22    23 1   
    53    22    55 1   
    54    22    56 1   
    55    23    24 1   
    56    23    29 1   
    57    23    57 1   
    58    24    58 1   
    59    24    59 1   
    60    24    60 1   
    61    26    61 1   
    62    27    62 1   
    63    28    63 1   
@<TRIPOS>SUBSTRUCTURE
     1 D9F         1 TEMP              0 ****  ****    0 ROOT
