@<TRIPOS>MOLECULE
D9F
   63    63     1     0     0
SMALL
abcg2


@<TRIPOS>ATOM
      1 C02         11.0850    82.5810   105.7860 c          1 D9F       0.601300
      2 C03          9.9770    83.4870   105.4510 ce         1 D9F      -0.279200
      3 C04          9.8920    84.8240   105.5770 cf         1 D9F      -0.090000
      4 C05         10.8290    85.7940   106.1020 cf         1 D9F      -0.211000
      5 C06         10.4710    87.0770   106.2490 c2         1 D9F      -0.171200
      6 C07         11.3230    88.1180   106.8950 c3         1 D9F      -0.082200
      7 C08         11.0000    89.5540   106.4570 c3         1 D9F       0.214500
      8 C10         11.3770    89.8020   105.0320 c2         1 D9F      -0.227200
      9 C11         10.5550    90.1660   104.0470 ce         1 D9F      -0.152000
     10 C12         11.0100    90.5230   102.7010 ce         1 D9F      -0.188000
     11 C13         12.1000    91.2540   102.4560 c2         1 D9F      -0.209200
     12 C14         12.6150    91.6450   101.1120 c3         1 D9F      -0.084200
     13 C15         14.0790    91.2210   100.9280 c3         1 D9F       0.186300
     14 C17         14.1970    89.7080   100.7650 c3         1 D9F      -0.065400
     15 C18         15.4650    89.0760   101.3350 c3         1 D9F       0.208500
     16 C20         15.4840    89.1680   102.8370 c2         1 D9F      -0.258200
     17 C21         15.0990    88.2100   103.6890 ce         1 D9F      -0.166000
     18 C22         14.6320    86.8840   103.3260 ce         1 D9F      -0.206000
     19 C23         14.2020    85.9690   104.2020 c2         1 D9F      -0.188200
     20 C24         13.7500    84.6000   103.8120 c3         1 D9F      -0.045200
     21 C25         14.6190    83.4780   104.3980 c3         1 D9F      -0.064400
     22 C26         14.5710    83.2790   105.9150 c3         1 D9F      -0.078400
     23 C27         13.3990    82.4490   106.4140 c3         1 D9F       0.177300
     24 C28         13.4820    82.1410   107.8970 c3         1 D9F      -0.111100
     25 O01         10.9760    81.3760   105.7120 o          1 D9F      -0.498000
     26 O09          9.6430    89.8620   106.6540 oh         1 D9F      -0.656000
     27 O16         14.6470    91.8300    99.7870 oh         1 D9F      -0.646000
     28 O19         16.5910    89.7170   100.7700 oh         1 D9F      -0.643000
     29 O29         12.1980    83.2000   106.1520 os         1 D9F      -0.455100
     30 H1           9.1100    82.9680   105.0630 ha         1 D9F       0.201000
     31 H2           8.9450    85.2520   105.2590 ha         1 D9F       0.168000
     32 H3          11.8120    85.4760   106.4160 ha         1 D9F       0.195000
     33 H4           9.4740    87.3820   105.9410 ha         1 D9F       0.183000
     34 H5          12.3840    87.9120   106.7320 hc         1 D9F       0.053700
     35 H6          11.1770    88.0590   107.9810 hc         1 D9F       0.053700
     36 H7          11.6380    90.2120   107.0670 h1         1 D9F       0.033700
     37 H8          12.4370    89.6900   104.8190 ha         1 D9F       0.175000
     38 H9           9.4860    90.2200   104.2240 ha         1 D9F       0.192000
     39 H10         10.3860    90.2030   101.8690 ha         1 D9F       0.176000
     40 H11         12.6740    91.6210   103.3050 ha         1 D9F       0.166000
     41 H12         12.5610    92.7370   101.0190 hc         1 D9F       0.052200
     42 H13         11.9960    91.2250   100.3140 hc         1 D9F       0.052200
     43 H14         14.6210    91.5380   101.8320 h1         1 D9F       0.030700
     44 H15         14.1080    89.4660    99.7000 hc         1 D9F       0.062700
     45 H16         13.3550    89.2210   101.2600 hc         1 D9F       0.062700
     46 H17         15.4500    88.0190   101.0370 h1         1 D9F       0.033700
     47 H18         15.8140    90.1170   103.2480 ha         1 D9F       0.178000
     48 H19         15.1340    88.4290   104.7530 ha         1 D9F       0.166000
     49 H20         14.6350    86.6150   102.2740 ha         1 D9F       0.171000
     50 H21         14.1840    86.2240   105.2600 ha         1 D9F       0.165000
     51 H22         12.7070    84.4630   104.1040 hc         1 D9F       0.053700
     52 H23         13.7760    84.5180   102.7220 hc         1 D9F       0.053700
     53 H24         14.3450    82.5380   103.9110 hc         1 D9F       0.041700
     54 H25         15.6540    83.6730   104.1060 hc         1 D9F       0.041700
     55 H26         15.4740    82.7450   106.2190 hc         1 D9F       0.049200
     56 H27         14.6040    84.2360   106.4460 hc         1 D9F       0.049200
     57 H28         13.3650    81.5150   105.8480 h1         1 D9F       0.065700
     58 H29         12.6340    81.5410   108.2270 hc         1 D9F       0.046700
     59 H30         14.3890    81.5720   108.1060 hc         1 D9F       0.046700
     60 H31         13.5120    83.0550   108.4910 hc         1 D9F       0.046700
     61 H32          9.4430    89.7640   107.5900 ho         1 D9F       0.445000
     62 H33         14.6220    92.7840    99.9150 ho         1 D9F       0.436000
     63 H34         17.3790    89.2850   101.1150 ho         1 D9F       0.438000
@<TRIPOS>BOND
     1     1     2 1   
     2     1    25 2   
     3     1    29 1   
     4     2     3 2   
     5     2    30 1   
     6     3     4 1   
     7     3    31 1   
     8     4     5 2   
     9     4    32 1   
    10     5     6 1   
    11     5    33 1   
    12     6     7 1   
    13     6    34 1   
    14     6    35 1   
    15     7     8 1   
    16     7    26 1   
    17     7    36 1   
    18     8     9 2   
    19     8    37 1   
    20     9    10 1   
    21     9    38 1   
    22    10    11 2   
    23    10    39 1   
    24    11    12 1   
    25    11    40 1   
    26    12    13 1   
    27    12    41 1   
    28    12    42 1   
    29    13    14 1   
    30    13    27 1   
    31    13    43 1   
    32    14    15 1   
    33    14    44 1   
    34    14    45 1   
    35    15    16 1   
    36    15    28 1   
    37    15    46 1   
    38    16    17 2   
    39    16    47 1   
    40    17    18 1   
    41    17    48 1   
    42    18    19 2   
    43    18    49 1   
    44    19    20 1   
    45    19    50 1   
    46    20    21 1   
    47    20    51 1   
    48    20    52 1   
    49    21    22 1   
    50    21    53 1   
    51    21    54 1   
    52    22    23 1   
    53    22    55 1   
    54    22    56 1   
    55    23    24 1   
    56    23    29 1   
    57    23    57 1   
    58    24    58 1   
    59    24    59 1   
    60    24    60 1   
    61    26    61 1   
    62    27    62 1   
    63    28    63 1   
@<TRIPOS>SUBSTRUCTURE
     1 D9F         1 TEMP              0 ****  ****    0 ROOT
