@<TRIPOS>MOLECULE
D9G
   52    51     1     0     0
SMALL
No Charge or Current Charge


@<TRIPOS>ATOM
      1 CAC         10.7280    -0.4320     0.0020 c3         1 D9G      -0.089100
      2 CAD          9.4520     0.4310     0.0390 c3         1 D9G      -0.074400
      3 CAE          8.1550    -0.4060     0.0000 c3         1 D9G      -0.075400
      4 CAF          6.8760     0.4590     0.0360 c3         1 D9G      -0.074400
      5 CAG          5.5790    -0.3780    -0.0020 c3         1 D9G      -0.074400
      6 CAH          4.3000     0.4880     0.0340 c3         1 D9G      -0.073400
      7 CAI          3.0020    -0.3490    -0.0050 c3         1 D9G      -0.074400
      8 CAJ          1.7240     0.5160     0.0310 c3         1 D9G      -0.074400
      9 CAK          0.4260    -0.3210    -0.0080 c3         1 D9G      -0.074400
     10 CAL         -0.8520     0.5440     0.0280 c3         1 D9G      -0.075400
     11 CAM         -2.1470    -0.2920    -0.0110 c3         1 D9G      -0.096400
     12 CAN         -3.4140     0.5910     0.0250 c3         1 D9G       0.082600
     13 NAO         -4.7800    -0.1100    -0.0080 n4         1 D9G      -0.469000
     14 CAS         -4.9260    -0.9280    -1.3000 c3         1 D9G       0.082900
     15 CAA         -4.9310    -1.0360     1.2090 c3         1 D9G       0.082900
     16 CAP         -5.8820     0.9780     0.0370 c3         1 D9G      -0.069400
     17 CAQ         -7.3680     0.5490     0.0160 c          1 D9G       0.726000
     18 OAB         -7.9180     0.4420    -1.0710 o          1 D9G      -0.666000
     19 OAR         -7.9220     0.3490     1.0870 o          1 D9G      -0.666000
     20 HAC1        10.7620    -1.1110     0.8630 hc         1 D9G       0.031700
     21 HAC2        10.7650    -1.0330    -0.9140 hc         1 D9G       0.031700
     22 HAC3        11.6210     0.2040     0.0320 hc         1 D9G       0.031700
     23 HAD1         9.4630     1.0440     0.9480 hc         1 D9G       0.036700
     24 HAD2         9.4650     1.1220    -0.8140 hc         1 D9G       0.036700
     25 HAE1         8.1490    -1.0190    -0.9090 hc         1 D9G       0.037700
     26 HAE2         8.1470    -1.0970     0.8530 hc         1 D9G       0.037700
     27 HAF1         6.8820     1.0730     0.9460 hc         1 D9G       0.037700
     28 HAF2         6.8840     1.1500    -0.8160 hc         1 D9G       0.037700
     29 HAG1         5.5730    -0.9910    -0.9120 hc         1 D9G       0.037700
     30 HAG2         5.5700    -1.0680     0.8510 hc         1 D9G       0.037700
     31 HAH1         4.3060     1.1010     0.9440 hc         1 D9G       0.038700
     32 HAH2         4.3080     1.1780    -0.8190 hc         1 D9G       0.038700
     33 HAI1         2.9970    -0.9630    -0.9140 hc         1 D9G       0.038700
     34 HAI2         2.9940    -1.0400     0.8480 hc         1 D9G       0.038700
     35 HAJ1         1.7290     1.1300     0.9410 hc         1 D9G       0.040700
     36 HAJ2         1.7320     1.2070    -0.8220 hc         1 D9G       0.040700
     37 HAK1         0.4210    -0.9350    -0.9170 hc         1 D9G       0.041200
     38 HAK2         0.4180    -1.0120     0.8450 hc         1 D9G       0.041200
     39 HAL1        -0.8470     1.1590     0.9370 hc         1 D9G       0.046700
     40 HAL2        -0.8440     1.2350    -0.8250 hc         1 D9G       0.046700
     41 HAM1        -2.1520    -0.9030    -0.9210 hc         1 D9G       0.056700
     42 HAM2        -2.1550    -0.9790     0.8430 hc         1 D9G       0.056700
     43 HAN1        -3.3850     1.1960     0.9340 hx         1 D9G       0.081700
     44 HAN2        -3.3820     1.2720    -0.8280 hx         1 D9G       0.081700
     45 HAS1        -4.1580    -1.7030    -1.3270 hx         1 D9G       0.089033
     46 HAS2        -5.9140    -1.3910    -1.3230 hx         1 D9G       0.089033
     47 HAS3        -4.8110    -0.2630    -2.1590 hx         1 D9G       0.089033
     48 HAA1        -4.8190    -0.4480     2.1220 hx         1 D9G       0.089033
     49 HAA2        -5.9190    -1.4990     1.1880 hx         1 D9G       0.089033
     50 HAA3        -4.1620    -1.8110     1.1710 hx         1 D9G       0.089033
     51 HAP1        -5.7380     1.5600     0.9480 hx         1 D9G       0.068700
     52 HAP2        -5.7340     1.6370    -0.8190 hx         1 D9G       0.068700
@<TRIPOS>BOND
     1     1     2 1   
     2     1    20 1   
     3     1    21 1   
     4     1    22 1   
     5     2     3 1   
     6     2    23 1   
     7     2    24 1   
     8     3     4 1   
     9     3    25 1   
    10     3    26 1   
    11     4     5 1   
    12     4    27 1   
    13     4    28 1   
    14     5     6 1   
    15     5    29 1   
    16     5    30 1   
    17     6     7 1   
    18     6    31 1   
    19     6    32 1   
    20     7     8 1   
    21     7    33 1   
    22     7    34 1   
    23     8     9 1   
    24     8    35 1   
    25     8    36 1   
    26     9    10 1   
    27     9    37 1   
    28     9    38 1   
    29    10    11 1   
    30    10    39 1   
    31    10    40 1   
    32    11    12 1   
    33    11    41 1   
    34    11    42 1   
    35    12    13 1   
    36    12    43 1   
    37    12    44 1   
    38    13    14 1   
    39    13    15 1   
    40    13    16 1   
    41    14    45 1   
    42    14    46 1   
    43    14    47 1   
    44    15    48 1   
    45    15    49 1   
    46    15    50 1   
    47    16    17 1   
    48    16    51 1   
    49    16    52 1   
    50    17    18 1   
    51    17    19 1   
@<TRIPOS>SUBSTRUCTURE
     1 D9G         1 TEMP              0 ****  ****    0 ROOT
