@<TRIPOS>MOLECULE
D9G
   52    51     1     0     0
SMALL
abcg2


@<TRIPOS>ATOM
      1 CAC         10.5760    -0.4410    -0.0310 c3         1 D9G      -0.089100
      2 CAD          9.3270     0.4300    -0.0270 c3         1 D9G      -0.074400
      3 CAE          8.0400    -0.3860    -0.0010 c3         1 D9G      -0.075400
      4 CAF          6.7800     0.4700     0.0030 c3         1 D9G      -0.074400
      5 CAG          5.4970    -0.3520     0.0320 c3         1 D9G      -0.074400
      6 CAH          4.2330     0.4990     0.0360 c3         1 D9G      -0.073400
      7 CAI          2.9550    -0.3300     0.0590 c3         1 D9G      -0.074400
      8 CAJ          1.6870     0.5150     0.0580 c3         1 D9G      -0.074400
      9 CAK          0.4140    -0.3220     0.0720 c3         1 D9G      -0.074400
     10 CAL         -0.8550     0.5210     0.0540 c3         1 D9G      -0.075400
     11 CAM         -2.1180    -0.3380     0.0520 c3         1 D9G      -0.096400
     12 CAN         -3.3410     0.5570     0.0010 c3         1 D9G       0.082600
     13 NAO         -4.6810    -0.1380    -0.0130 n4         1 D9G      -0.469000
     14 CAS         -4.7740    -1.0390    -1.1940 c3         1 D9G       0.082900
     15 CAA         -4.8640    -0.9150     1.2430 c3         1 D9G       0.082900
     16 CAP         -5.7190     0.9500    -0.1040 c3         1 D9G      -0.069400
     17 CAQ         -7.2220     0.5710    -0.1400 c          1 D9G       0.726000
     18 OAB         -7.9390     1.5780    -0.2270 o          1 D9G      -0.666000
     19 OAR         -7.5720    -0.6180    -0.0840 o          1 D9G      -0.666000
     20 HAC1        10.6140    -1.0760     0.8570 hc         1 D9G       0.031700
     21 HAC2        10.5950    -1.0960    -0.9040 hc         1 D9G       0.031700
     22 HAC3        11.4870     0.1570    -0.0470 hc         1 D9G       0.031700
     23 HAD1         9.3490     1.0990     0.8400 hc         1 D9G       0.036700
     24 HAD2         9.3280     1.0780    -0.9090 hc         1 D9G       0.036700
     25 HAE1         8.0210    -1.0570    -0.8670 hc         1 D9G       0.037700
     26 HAE2         8.0410    -1.0340     0.8830 hc         1 D9G       0.037700
     27 HAF1         6.8000     1.1420     0.8690 hc         1 D9G       0.037700
     28 HAF2         6.7770     1.1170    -0.8820 hc         1 D9G       0.037700
     29 HAG1         5.4790    -1.0240    -0.8340 hc         1 D9G       0.037700
     30 HAG2         5.5020    -1.0000     0.9160 hc         1 D9G       0.037700
     31 HAH1         4.2490     1.1680     0.9030 hc         1 D9G       0.038700
     32 HAH2         4.2290     1.1470    -0.8470 hc         1 D9G       0.038700
     33 HAI1         2.9430    -1.0010    -0.8070 hc         1 D9G       0.038700
     34 HAI2         2.9580    -0.9780     0.9440 hc         1 D9G       0.038700
     35 HAJ1         1.6930     1.1830     0.9260 hc         1 D9G       0.040700
     36 HAJ2         1.6850     1.1650    -0.8250 hc         1 D9G       0.040700
     37 HAK1         0.4140    -0.9940    -0.7930 hc         1 D9G       0.041200
     38 HAK2         0.4110    -0.9660     0.9580 hc         1 D9G       0.041200
     39 HAL1        -0.8640     1.1870     0.9230 hc         1 D9G       0.046700
     40 HAL2        -0.8500     1.1660    -0.8310 hc         1 D9G       0.046700
     41 HAM1        -2.0840    -1.0060    -0.8110 hc         1 D9G       0.056700
     42 HAM2        -2.1210    -0.9640     0.9470 hc         1 D9G       0.056700
     43 HAN1        -3.3560     1.2250     0.8640 hx         1 D9G       0.081700
     44 HAN2        -3.3130     1.1760    -0.8970 hx         1 D9G       0.081700
     45 HAS1        -4.0390    -1.8330    -1.1050 hx         1 D9G       0.089033
     46 HAS2        -5.7690    -1.4660    -1.2290 hx         1 D9G       0.089033
     47 HAS3        -4.5820    -0.4590    -2.0940 hx         1 D9G       0.089033
     48 HAA1        -4.7610    -0.2420     2.0910 hx         1 D9G       0.089033
     49 HAA2        -5.8510    -1.3590     1.2380 hx         1 D9G       0.089033
     50 HAA3        -4.1130    -1.6970     1.3020 hx         1 D9G       0.089033
     51 HAP1        -5.5470     1.6070     0.7500 hx         1 D9G       0.068700
     52 HAP2        -5.4850     1.5210    -1.0040 hx         1 D9G       0.068700
@<TRIPOS>BOND
     1     1     2 1   
     2     1    20 1   
     3     1    21 1   
     4     1    22 1   
     5     2     3 1   
     6     2    23 1   
     7     2    24 1   
     8     3     4 1   
     9     3    25 1   
    10     3    26 1   
    11     4     5 1   
    12     4    27 1   
    13     4    28 1   
    14     5     6 1   
    15     5    29 1   
    16     5    30 1   
    17     6     7 1   
    18     6    31 1   
    19     6    32 1   
    20     7     8 1   
    21     7    33 1   
    22     7    34 1   
    23     8     9 1   
    24     8    35 1   
    25     8    36 1   
    26     9    10 1   
    27     9    37 1   
    28     9    38 1   
    29    10    11 1   
    30    10    39 1   
    31    10    40 1   
    32    11    12 1   
    33    11    41 1   
    34    11    42 1   
    35    12    13 1   
    36    12    43 1   
    37    12    44 1   
    38    13    14 1   
    39    13    15 1   
    40    13    16 1   
    41    14    45 1   
    42    14    46 1   
    43    14    47 1   
    44    15    48 1   
    45    15    49 1   
    46    15    50 1   
    47    16    17 1   
    48    16    51 1   
    49    16    52 1   
    50    17    18 1   
    51    17    19 1   
@<TRIPOS>SUBSTRUCTURE
     1 D9G         1 TEMP              0 ****  ****    0 ROOT
