@<TRIPOS>MOLECULE
D9H
   35    36     1     0     0
SMALL
No Charge or Current Charge


@<TRIPOS>ATOM
      1 C1          -3.7640     0.4810    -0.0860 ca         1 D9H      -0.310500
      2 N1          -5.9060     1.5030    -1.2780 n8         1 D9H      -1.006100
      3 O1          -5.7720    -0.9280    -1.1460 o          1 D9H      -0.546000
      4 S1          -5.5260     0.2430    -0.3090 sy         1 D9H       1.134600
      5 C2          -3.2940     1.3340     0.9310 ca         1 D9H       0.022000
      6 O2          -6.2400     0.4940     0.9430 o          1 D9H      -0.546000
      7 C3          -1.9130     1.5190     1.1050 ca         1 D9H      -0.175000
      8 C4          -0.9910     0.8550     0.2820 ca         1 D9H       0.368000
      9 C5          -1.4660     0.0160    -0.7420 ca         1 D9H      -0.175000
     10 C6          -2.8450    -0.1770    -0.9270 ca         1 D9H       0.022000
     11 N7           0.3720     1.0840     0.4910 nu         1 D9H      -0.919900
     12 C8           1.5270     0.3660     0.2480 ca         1 D9H       0.447900
     13 N9           2.6640     1.0270     0.5020 nb         1 D9H      -0.355000
     14 C10          3.7780     0.3210     0.2770 ca         1 D9H       0.440900
     15 N11          4.9640     0.9880     0.5320 nu         1 D9H      -0.912100
     16 N12          3.8310    -0.9470    -0.1620 nb         1 D9H      -0.295000
     17 C13          2.6270    -1.5070    -0.3770 ca         1 D9H       0.304000
     18 Cl13         2.6020    -3.1660    -0.9520 cl         1 D9H      -0.119000
     19 N14          1.4400    -0.9020    -0.1880 nb         1 D9H      -0.291000
     20 C15          6.3460     0.4320     0.4870 c3         1 D9H       0.197800
     21 C16          6.8090     0.1380    -0.9670 c3         1 D9H       0.135600
     22 O17          6.3460     1.1880    -1.8300 oh         1 D9H      -0.656000
     23 HN1         -5.0090     1.7310    -1.6970 hn         1 D9H       0.472500
     24 HN11         4.8360     1.8820     1.0140 hn         1 D9H       0.514000
     25 H2          -3.9920     1.8550     1.5860 ha         1 D9H       0.138500
     26 H3          -1.5610     2.1780     1.8930 ha         1 D9H       0.139500
     27 H5          -0.7740    -0.4790    -1.4140 ha         1 D9H       0.139500
     28 H15          7.0470     1.1560     0.9250 h1         1 D9H       0.069200
     29 H15A         6.4160    -0.4870     1.0860 h1         1 D9H       0.069200
     30 H6          -3.1890    -0.8340    -1.7250 ha         1 D9H       0.138500
     31 H16          7.9030     0.0470    -0.9970 h1         1 D9H       0.060700
     32 H16A         6.3850    -0.8240    -1.2840 h1         1 D9H       0.060700
     33 HN7          0.5660     1.9390     1.0080 hn         1 D9H       0.516000
     34 HO17         5.5300     1.5050    -1.3730 ho         1 D9H       0.442000
     35 HN1A        -6.4090     1.0260    -2.0230 hn         1 D9H       0.472500
@<TRIPOS>BOND
     1     1     4 1   
     2     1     5 ar  
     3     1    10 ar  
     4     2     4 1   
     5     2    23 1   
     6     2    35 1   
     7     3     4 2   
     8     4     6 2   
     9     5     7 ar  
    10     5    25 1   
    11     7     8 ar  
    12     7    26 1   
    13     8     9 ar  
    14     8    11 1   
    15     9    10 ar  
    16     9    27 1   
    17    10    30 1   
    18    11    12 1   
    19    11    33 1   
    20    12    13 ar  
    21    12    19 ar  
    22    13    14 ar  
    23    14    15 1   
    24    14    16 ar  
    25    15    20 1   
    26    15    24 1   
    27    16    17 ar  
    28    17    18 1   
    29    17    19 ar  
    30    20    21 1   
    31    20    28 1   
    32    20    29 1   
    33    21    22 1   
    34    21    31 1   
    35    21    32 1   
    36    22    34 1   
@<TRIPOS>SUBSTRUCTURE
     1 D9H         1 TEMP              0 ****  ****    0 ROOT
