@<TRIPOS>MOLECULE
D9H
   35    36     1     0     0
SMALL
abcg2


@<TRIPOS>ATOM
      1 C1          -3.6920     0.4330    -0.1060 ca         1 D9H      -0.310500
      2 N1          -5.7940     1.4680    -1.3190 n8         1 D9H      -1.006100
      3 O1          -5.6430    -1.0920    -0.9270 o          1 D9H      -0.546000
      4 S1          -5.4270     0.2110    -0.3120 sy         1 D9H       1.134600
      5 C2          -3.2250     1.5530     0.5760 ca         1 D9H       0.022000
      6 O2          -6.1130     0.4990     0.9400 o          1 D9H      -0.546000
      7 C3          -1.8700     1.7190     0.7560 ca         1 D9H      -0.175000
      8 C4          -0.9550     0.7740     0.2680 ca         1 D9H       0.368000
      9 C5          -1.4370    -0.3470    -0.4110 ca         1 D9H      -0.175000
     10 C6          -2.8020    -0.5090    -0.5930 ca         1 D9H       0.022000
     11 N7           0.3830     1.0490     0.5070 nu         1 D9H      -0.919900
     12 C8           1.5110     0.3600     0.2140 ca         1 D9H       0.447900
     13 N9           2.6390     0.9320     0.6070 nb         1 D9H      -0.355000
     14 C10          3.7530     0.2550     0.3270 ca         1 D9H       0.440900
     15 N11          4.9130     0.7800     0.7100 nu         1 D9H      -0.912100
     16 N12          3.7760    -0.9320    -0.3140 nb         1 D9H      -0.295000
     17 C13          2.5920    -1.3690    -0.6380 ca         1 D9H       0.304000
     18 CL13         2.5470    -2.8890    -1.4580 cl         1 D9H      -0.119000
     19 N14          1.4250    -0.8110    -0.4260 nb         1 D9H      -0.291000
     20 C15          6.2100     0.1670     0.5040 c3         1 D9H       0.197800
     21 C16          6.7650     0.3930    -0.8940 c3         1 D9H       0.135600
     22 O17          6.9530     1.7560    -1.1970 oh         1 D9H      -0.656000
     23 HN1         -5.4720     1.3160    -2.2690 hn         1 D9H       0.472500
     24 HN11         4.8680     1.6630     1.1920 hn         1 D9H       0.514000
     25 H2          -3.9050     2.2990     0.9630 ha         1 D9H       0.138500
     26 H3          -1.5100     2.5950     1.2820 ha         1 D9H       0.139500
     27 H5          -0.7630    -1.0910    -0.7990 ha         1 D9H       0.139500
     28 H15          6.8820     0.5980     1.2460 h1         1 D9H       0.069200
     29 H15A         6.1520    -0.9030     0.7010 h1         1 D9H       0.069200
     30 H6          -3.1550    -1.3840    -1.1210 ha         1 D9H       0.138500
     31 H16          7.7450    -0.0870    -0.9510 h1         1 D9H       0.060700
     32 H16A         6.1210    -0.1020    -1.6300 h1         1 D9H       0.060700
     33 HN7          0.5650     1.9120     1.0000 hn         1 D9H       0.516000
     34 HO17         6.0890     2.1680    -1.2860 ho         1 D9H       0.442000
     35 HN1A        -6.7900     1.6710    -1.3130 hn         1 D9H       0.472500
@<TRIPOS>BOND
     1     1     4 1   
     2     1     5 ar  
     3     1    10 ar  
     4     2     4 1   
     5     2    23 1   
     6     2    35 1   
     7     3     4 2   
     8     4     6 2   
     9     5     7 ar  
    10     5    25 1   
    11     7     8 ar  
    12     7    26 1   
    13     8     9 ar  
    14     8    11 1   
    15     9    10 ar  
    16     9    27 1   
    17    10    30 1   
    18    11    12 1   
    19    11    33 1   
    20    12    13 ar  
    21    12    19 ar  
    22    13    14 ar  
    23    14    15 1   
    24    14    16 ar  
    25    15    20 1   
    26    15    24 1   
    27    16    17 ar  
    28    17    18 1   
    29    17    19 ar  
    30    20    21 1   
    31    20    28 1   
    32    20    29 1   
    33    21    22 1   
    34    21    31 1   
    35    21    32 1   
    36    22    34 1   
@<TRIPOS>SUBSTRUCTURE
     1 D9H         1 TEMP              0 ****  ****    0 ROOT
