@<TRIPOS>MOLECULE
D9I
   45    46     1     0     0
SMALL
No Charge or Current Charge


@<TRIPOS>ATOM
      1 C4          -4.3800     4.2850    13.6770 ca         1 D9I       0.351000
      2 C5          -3.4200     3.3880    14.1780 ca         1 D9I      -0.112500
      3 C6          -3.7940     2.3480    15.0450 ca         1 D9I      -0.000500
      4 C12         -4.6120     5.3380    11.4700 c3         1 D9I       0.256800
      5 C13         -3.7410     4.7310    10.3540 c3         1 D9I      -0.238400
      6 O24         -0.5080     8.3190    16.2820 o          1 D9I      -0.520000
      7 O25         -0.0940     9.7420    14.5580 os         1 D9I      -0.443100
      8 C26          0.7930    10.5290    15.3690 c3         1 D9I       0.167600
      9 C27          1.3180    11.6770    14.4920 c3         1 D9I      -0.095100
     10 C21         -1.5890     7.8950    14.2250 cc         1 D9I      -0.386600
     11 S18         -2.4410     6.4740    14.7650 ss         1 D9I      -0.028400
     12 C20         -1.8740     8.1760    12.9030 cd         1 D9I       0.432300
     13 C22         -1.3640     9.3090    12.0500 c3         1 D9I      -0.126400
     14 N19         -2.7510     7.2840    12.3060 nd         1 D9I      -0.757000
     15 C17         -3.1080     6.3390    13.1550 cc         1 D9I       0.746300
     16 N11         -3.9970     5.3370    12.8210 nh         1 D9I      -0.778100
     17 C14         -3.6990     3.2100    10.4840 c          1 D9I       0.713000
     18 O16         -2.7430     2.6990    11.0470 o          1 D9I      -0.734000
     19 O15         -4.6210     2.5710    10.0020 o          1 D9I      -0.734000
     20 C3          -5.7250     4.1300    14.0570 ca         1 D9I      -0.112500
     21 C2          -6.1100     3.0950    14.9260 ca         1 D9I      -0.000500
     22 C1          -5.1430     2.2010    15.4260 ca         1 D9I      -0.270500
     23 S7          -5.6280     0.8770    16.5380 sy         1 D9I       1.130600
     24 O8          -4.4800     0.3730    17.2870 o          1 D9I      -0.565000
     25 O9          -6.9080     1.1700    17.1770 o          1 D9I      -0.565000
     26 N10         -5.9830    -0.3460    15.5230 n8         1 D9I      -0.997100
     27 H1          -2.3810     3.4910    13.8810 ha         1 D9I       0.134500
     28 H2          -3.0350     1.6620    15.4160 ha         1 D9I       0.130500
     29 H3          -4.8720     6.3680    11.1870 h1         1 D9I       0.048700
     30 H4          -5.5690     4.7990    11.4870 h1         1 D9I       0.048700
     31 H5          -2.7400     5.1670    10.4380 hc         1 D9I       0.039200
     32 H6          -4.2630     5.0040     9.4290 hc         1 D9I       0.039200
     33 H7           1.6380     9.9260    15.7270 h1         1 D9I       0.043700
     34 H8           0.2650    10.9450    16.2380 h1         1 D9I       0.043700
     35 H9           2.0030    12.3110    15.0660 hc         1 D9I       0.041033
     36 H10          1.8600    11.2820    13.6240 hc         1 D9I       0.041033
     37 H11          0.4890    12.3000    14.1350 hc         1 D9I       0.041033
     38 H12         -1.7790     9.2680    11.0360 hc         1 D9I       0.051033
     39 H13         -1.6420    10.2780    12.4780 hc         1 D9I       0.051033
     40 H14         -0.2730     9.2700    11.9590 hc         1 D9I       0.051033
     41 H16         -6.4740     4.8250    13.6880 ha         1 D9I       0.134500
     42 H17         -7.1570     2.9950    15.2090 ha         1 D9I       0.130500
     43 H18         -5.4050    -1.0830    15.9200 hn         1 D9I       0.471000
     44 H19         -6.9100    -0.5960    15.8600 hn         1 D9I       0.471000
     45 C23         -0.6950     8.6510    15.1200 c          1 D9I       0.654700
@<TRIPOS>BOND
     1     1     2 ar  
     2     1    16 1   
     3     1    20 ar  
     4     2     3 ar  
     5     2    27 1   
     6     3    22 ar  
     7     3    28 1   
     8     4     5 1   
     9     4    16 1   
    10     4    29 1   
    11     4    30 1   
    12     5    17 1   
    13     5    31 1   
    14     5    32 1   
    15     6    45 2   
    16     7     8 1   
    17     7    45 1   
    18     8     9 1   
    19     8    33 1   
    20     8    34 1   
    21     9    35 1   
    22     9    36 1   
    23     9    37 1   
    24    10    11 1   
    25    10    12 2   
    26    10    45 1   
    27    11    15 1   
    28    12    13 1   
    29    12    14 1   
    30    13    38 1   
    31    13    39 1   
    32    13    40 1   
    33    14    15 2   
    34    15    16 1   
    35    17    18 1   
    36    17    19 1   
    37    20    21 ar  
    38    20    41 1   
    39    21    22 ar  
    40    21    42 1   
    41    22    23 1   
    42    23    24 2   
    43    23    25 2   
    44    23    26 1   
    45    26    43 1   
    46    26    44 1   
@<TRIPOS>SUBSTRUCTURE
     1 D9I         1 TEMP              0 ****  ****    0 ROOT
