@<TRIPOS>MOLECULE
D9I
   45    46     1     0     0
SMALL
bcc


@<TRIPOS>ATOM
      1 C4          -4.4460     4.3800    13.6520 ca         1 D9I       0.212600
      2 C5          -3.4750     3.4800    14.0880 ca         1 D9I      -0.130500
      3 C6          -3.8100     2.4820    14.9830 ca         1 D9I      -0.018500
      4 C12         -4.7000     5.3850    11.3870 c3         1 D9I       0.256800
      5 C13         -3.8240     4.6690    10.3770 c3         1 D9I      -0.238400
      6 O24         -0.7120     8.1480    16.2340 o          1 D9I      -0.569000
      7 O25         -0.1690     9.5830    14.5970 os         1 D9I      -0.419900
      8 C26          0.7130    10.3050    15.4690 c3         1 D9I       0.144400
      9 C27          1.2840    11.4640    14.6880 c3         1 D9I      -0.095100
     10 C21         -1.6710     7.8840    14.1170 cc         1 D9I      -0.307000
     11 S18         -2.5600     6.4870    14.6580 ss         1 D9I      -0.173300
     12 C20         -1.9310     8.1230    12.7910 cd         1 D9I       0.497600
     13 C22         -1.3700     9.2220    11.9490 c3         1 D9I      -0.126400
     14 N19         -2.7900     7.2500    12.2090 nd         1 D9I      -0.757000
     15 C17         -3.2080     6.3410    13.0540 cc         1 D9I       0.746300
     16 N11         -4.1120     5.3990    12.7320 nh         1 D9I      -0.639700
     17 C14         -3.6880     3.1520    10.6330 c          1 D9I       0.923600
     18 O16         -2.5610     2.6510    10.4590 o          1 D9I      -0.839300
     19 O15         -4.7330     2.5560    10.9630 o          1 D9I      -0.839300
     20 C3          -5.7500     4.2770    14.1160 ca         1 D9I      -0.130500
     21 C2          -6.0970     3.2680    15.0010 ca         1 D9I      -0.018500
     22 C1          -5.1240     2.3780    15.4260 ca         1 D9I      -0.270500
     23 S7          -5.5380     1.1020    16.5820 sy         1 D9I       1.272200
     24 O8          -4.5230     1.0550    17.6240 o          1 D9I      -0.635800
     25 O9          -6.9290     1.2870    16.9690 o          1 D9I      -0.635800
     26 N10         -5.3000    -0.2500    15.6630 n8         1 D9I      -0.886700
     27 H1          -2.4640     3.5460    13.7070 ha         1 D9I       0.152500
     28 H2          -3.0540     1.7790    15.3070 ha         1 D9I       0.148500
     29 H3          -4.8830     6.4170    11.0910 h1         1 D9I       0.048700
     30 H4          -5.6670     4.8910    11.4610 h1         1 D9I       0.048700
     31 H5          -2.8450     5.1500    10.3290 hc         1 D9I       0.039200
     32 H6          -4.2840     4.8080     9.3910 hc         1 D9I       0.039200
     33 H7           1.5060     9.6430    15.8200 h1         1 D9I       0.043700
     34 H8           0.1600    10.6590    16.3420 h1         1 D9I       0.043700
     35 H9           1.9640    12.0250    15.3280 hc         1 D9I       0.041033
     36 H10          1.8460    11.1240    13.8180 hc         1 D9I       0.041033
     37 H11          0.5020    12.1450    14.3530 hc         1 D9I       0.041033
     38 H12         -1.7560     9.1380    10.9370 hc         1 D9I       0.051033
     39 H13         -1.6400    10.2030    12.3400 hc         1 D9I       0.051033
     40 H14         -0.2820     9.1810    11.9080 hc         1 D9I       0.051033
     41 H16         -6.5000     4.9840    13.7860 ha         1 D9I       0.152500
     42 H17         -7.1150     3.1910    15.3550 ha         1 D9I       0.148500
     43 H18         -5.1440    -1.0720    16.2380 hn         1 D9I       0.415800
     44 H19         -6.0480    -0.4140    14.9980 hn         1 D9I       0.415800
     45 C23         -0.8150     8.5350    15.0890 c          1 D9I       0.703700
@<TRIPOS>BOND
     1     1     2 ar  
     2     1    16 1   
     3     1    20 ar  
     4     2     3 ar  
     5     2    27 1   
     6     3    22 ar  
     7     3    28 1   
     8     4     5 1   
     9     4    16 1   
    10     4    29 1   
    11     4    30 1   
    12     5    17 1   
    13     5    31 1   
    14     5    32 1   
    15     6    45 2   
    16     7     8 1   
    17     7    45 1   
    18     8     9 1   
    19     8    33 1   
    20     8    34 1   
    21     9    35 1   
    22     9    36 1   
    23     9    37 1   
    24    10    11 1   
    25    10    12 2   
    26    10    45 1   
    27    11    15 1   
    28    12    13 1   
    29    12    14 1   
    30    13    38 1   
    31    13    39 1   
    32    13    40 1   
    33    14    15 2   
    34    15    16 1   
    35    17    18 1   
    36    17    19 1   
    37    20    21 ar  
    38    20    41 1   
    39    21    22 ar  
    40    21    42 1   
    41    22    23 1   
    42    23    24 2   
    43    23    25 2   
    44    23    26 1   
    45    26    43 1   
    46    26    44 1   
@<TRIPOS>SUBSTRUCTURE
     1 D9I         1 TEMP              0 ****  ****    0 ROOT
