@<TRIPOS>MOLECULE
D9J
   60    64     1     0     0
SMALL
abcg2


@<TRIPOS>ATOM
      1 FBM        -22.6710   -11.4920     4.4550 f          1 D9J      -0.105333
      2 CBL        -22.2150   -10.2420     4.6910 c3         1 D9J       0.351300
      3 FBN        -22.3950   -10.0070     6.0030 f          1 D9J      -0.105333
      4 FBO        -20.8790   -10.2750     4.4830 f          1 D9J      -0.105333
      5 CBE        -22.9060    -9.2120     3.8340 ca         1 D9J      -0.179300
      6 CBF        -23.7350    -8.2670     4.4290 ca         1 D9J      -0.055000
      7 CBG        -24.3940    -7.3150     3.6640 ca         1 D9J      -0.096000
      8 CBH        -24.2200    -7.3150     2.2880 ca         1 D9J       0.155000
      9 CLB        -25.0380    -6.1280     1.3150 cl         1 D9J      -0.179000
     10 CBI        -23.3980    -8.2460     1.6700 ca         1 D9J      -0.072000
     11 CBD        -22.7440    -9.1890     2.4450 ca         1 D9J       0.063800
     12 NBC        -21.8960   -10.1250     1.7820 na         1 D9J       0.008500
     13 NBB        -22.3660   -11.3340     1.3540 nc         1 D9J      -0.500800
     14 CBA        -21.3120   -11.8840     0.7780 cd         1 D9J       0.554300
     15 CBK        -21.3330   -13.2350     0.1610 c3         1 D9J      -0.114400
     16 NAZ        -20.2010   -11.0850     0.8070 nd         1 D9J      -0.723000
     17 CAG        -20.5990    -9.9930     1.4320 cc         1 D9J       0.466800
     18 CAD        -19.7650    -8.7930     1.7420 c6         1 D9J       0.104000
     19 CAC        -18.2780    -9.0640     1.4730 c6         1 D9J       0.151300
     20 OAY        -17.7850   -10.1110     2.2890 oh         1 D9J      -0.709000
     21 OAE        -20.2210    -7.7100     0.9410 os         1 D9J      -0.430000
     22 CAF        -19.5780    -6.4830     1.3030 c6         1 D9J       0.165300
     23 CAH        -20.2310    -5.3600     0.5310 c3         1 D9J       0.170600
     24 OAI        -21.5290    -5.1330     1.0790 oh         1 D9J      -0.725000
     25 CAA        -18.0740    -6.5730     1.0470 c6         1 D9J       0.130300
     26 OAJ        -17.8430    -6.6800    -0.3530 oh         1 D9J      -0.709000
     27 CAB        -17.5100    -7.7910     1.8070 c6         1 D9J       0.063300
     28 NAK        -16.0830    -7.9480     1.5680 na         1 D9J       0.125800
     29 CAL        -15.4440    -8.4310     0.4850 cc         1 D9J      -0.166000
     30 NAO        -15.2010    -7.5310     2.4940 nc         1 D9J      -0.192800
     31 NAN        -14.0070    -7.7390     2.0230 nd         1 D9J      -0.342000
     32 CAM        -14.1010    -8.2950     0.7800 cd         1 D9J       0.234500
     33 CAP        -12.9280    -8.6480    -0.0140 ca         1 D9J      -0.041500
     34 CAQ        -11.6460    -8.4640     0.5120 ca         1 D9J      -0.149500
     35 CAR        -10.5460    -8.8000    -0.2480 ca         1 D9J       0.202000
     36 FAV         -9.3160    -8.6220     0.2670 f          1 D9J      -0.159500
     37 CAS        -10.6590    -9.3200    -1.5330 ca         1 D9J       0.020000
     38 CLA         -9.2660    -9.7300    -2.4650 cl         1 D9J      -0.141000
     39 CAT        -11.9450    -9.4940    -2.0330 ca         1 D9J       0.202000
     40 FAX        -12.0910    -9.9940    -3.2720 f          1 D9J      -0.159500
     41 CAU        -13.0700    -9.1700    -1.3040 ca         1 D9J      -0.149500
     42 HBF        -23.8700    -8.2680     5.5000 ha         1 D9J       0.144000
     43 HBG        -25.0330    -6.5820     4.1360 ha         1 D9J       0.143000
     44 HBI        -23.2520    -8.2400     0.6000 ha         1 D9J       0.157000
     45 HBL        -21.0510   -13.1760    -0.8920 hc         1 D9J       0.060700
     46 HBM        -20.6180   -13.8920     0.6600 hc         1 D9J       0.060700
     47 HBK        -22.3270   -13.6720     0.2380 hc         1 D9J       0.060700
     48 HAD        -19.8870    -8.5410     2.8030 h1         1 D9J       0.071700
     49 HAC        -18.1630    -9.3070     0.4150 h1         1 D9J       0.077700
     50 HAY        -18.1480   -10.9380     1.9400 ho         1 D9J       0.538000
     51 HAF        -19.7280    -6.3080     2.3770 h1         1 D9J       0.063700
     52 HAH        -20.2910    -5.6310    -0.5240 h1         1 D9J       0.046200
     53 HAI        -19.6080    -4.4640     0.6250 h1         1 D9J       0.046200
     54 HBN        -22.0410    -4.6140     0.4480 ho         1 D9J       0.513000
     55 HAA        -17.6000    -5.6720     1.4430 h1         1 D9J       0.063700
     56 HAJ        -17.0180    -6.2290    -0.5700 ho         1 D9J       0.513000
     57 HAB        -17.6020    -7.5990     2.8770 h1         1 D9J       0.107700
     58 HAL        -15.9630    -8.8190    -0.3710 h4         1 D9J       0.178000
     59 HAQ        -11.5010    -8.0640     1.5050 ha         1 D9J       0.148000
     60 HAU        -14.0400    -9.3260    -1.7530 ha         1 D9J       0.148000
@<TRIPOS>BOND
     1     1     2 1   
     2     2     3 1   
     3     2     4 1   
     4     2     5 1   
     5     5     6 ar  
     6     5    11 ar  
     7     6     7 ar  
     8     6    42 1   
     9     7     8 ar  
    10     7    43 1   
    11     8     9 1   
    12     8    10 ar  
    13    10    11 ar  
    14    10    44 1   
    15    11    12 1   
    16    12    13 1   
    17    12    17 1   
    18    13    14 2   
    19    14    15 1   
    20    14    16 1   
    21    15    45 1   
    22    15    46 1   
    23    15    47 1   
    24    16    17 2   
    25    17    18 1   
    26    18    19 1   
    27    18    21 1   
    28    18    48 1   
    29    19    20 1   
    30    19    27 1   
    31    19    49 1   
    32    20    50 1   
    33    21    22 1   
    34    22    23 1   
    35    22    25 1   
    36    22    51 1   
    37    23    24 1   
    38    23    52 1   
    39    23    53 1   
    40    24    54 1   
    41    25    26 1   
    42    25    27 1   
    43    25    55 1   
    44    26    56 1   
    45    27    28 1   
    46    27    57 1   
    47    28    29 1   
    48    28    30 1   
    49    29    32 2   
    50    29    58 1   
    51    30    31 2   
    52    31    32 1   
    53    32    33 1   
    54    33    34 ar  
    55    33    41 ar  
    56    34    35 ar  
    57    34    59 1   
    58    35    36 1   
    59    35    37 ar  
    60    37    38 1   
    61    37    39 ar  
    62    39    40 1   
    63    39    41 ar  
    64    41    60 1   
@<TRIPOS>SUBSTRUCTURE
     1 D9J         1 TEMP              0 ****  ****    0 ROOT
