@<TRIPOS>MOLECULE
D9J
   60    64     1     0     0
SMALL
No Charge or Current Charge


@<TRIPOS>ATOM
      1 FBM        -23.0910   -11.3210     4.3860 f          1 D9J      -0.105333
      2 CBL        -22.6920   -10.0460     4.5930 c3         1 D9J       0.351300
      3 FBN        -23.1670    -9.6920     5.8090 f          1 D9J      -0.105333
      4 FBO        -21.3450   -10.0660     4.7070 f          1 D9J      -0.105333
      5 CBE        -23.1650    -9.1080     3.4640 ca         1 D9J      -0.179300
      6 CBF        -24.0840    -8.0690     3.7480 ca         1 D9J      -0.055000
      7 CBG        -24.5450    -7.2180     2.7290 ca         1 D9J      -0.096000
      8 CBH        -24.0980    -7.3930     1.4140 ca         1 D9J       0.155000
      9 ClB        -24.6860    -6.3330     0.1370 cl         1 D9J      -0.179000
     10 CBI        -23.1900    -8.4140     1.1130 ca         1 D9J      -0.072000
     11 CBD        -22.7130    -9.2700     2.1240 ca         1 D9J       0.063800
     12 NBC        -21.8160   -10.2770     1.7610 na         1 D9J       0.008500
     13 NBB        -22.2650   -11.4870     1.3620 nc         1 D9J      -0.500800
     14 CBA        -21.1160   -12.0860     1.1020 cd         1 D9J       0.554300
     15 CBK        -21.0580   -13.5070     0.6310 c3         1 D9J      -0.114400
     16 NAZ        -19.9790   -11.3190     1.3010 nd         1 D9J      -0.723000
     17 CAG        -20.4470   -10.1380     1.6970 cc         1 D9J       0.466800
     18 CAD        -19.6390    -8.8980     2.0780 c6         1 D9J       0.104000
     19 CAC        -18.1360    -9.0620     1.6680 c6         1 D9J       0.151300
     20 OAY        -17.5620   -10.2300     2.2900 oh         1 D9J      -0.709000
     21 OAE        -20.1730    -7.6850     1.4810 os         1 D9J      -0.430000
     22 CAF        -19.4910    -6.4700     1.8950 c6         1 D9J       0.165300
     23 CAH        -20.2680    -5.2370     1.3280 c3         1 D9J       0.170600
     24 OAI        -21.6170    -5.1360     1.8300 oh         1 D9J      -0.725000
     25 CAA        -17.9970    -6.5050     1.4350 c6         1 D9J       0.130300
     26 OAJ        -17.8900    -6.5110    -0.0090 oh         1 D9J      -0.709000
     27 CAB        -17.3320    -7.7770     2.0480 c6         1 D9J       0.063300
     28 NAK        -15.8930    -7.8610     1.6930 na         1 D9J       0.125800
     29 CAL        -15.3630    -8.3920     0.5380 cc         1 D9J      -0.166000
     30 NAO        -14.9080    -7.3800     2.5050 nc         1 D9J      -0.192800
     31 NAN        -13.7730    -7.6000     1.8990 nd         1 D9J      -0.342000
     32 CAM        -14.0160    -8.2210     0.6910 cd         1 D9J       0.234500
     33 CAP        -12.9470    -8.6130    -0.2530 ca         1 D9J      -0.041500
     34 CAQ        -11.5880    -8.3660     0.0480 ca         1 D9J      -0.149500
     35 CAR        -10.5750    -8.7390    -0.8500 ca         1 D9J       0.202000
     36 FAV         -9.2840    -8.4880    -0.5310 f          1 D9J      -0.159500
     37 CAS        -10.8930    -9.3660    -2.0670 ca         1 D9J       0.020000
     38 ClA         -9.6160    -9.8350    -3.1950 cl         1 D9J      -0.141000
     39 CAT        -12.2420    -9.6150    -2.3740 ca         1 D9J       0.202000
     40 FAX        -12.5750   -10.2170    -3.5380 f          1 D9J      -0.159500
     41 CAU        -13.2600    -9.2430    -1.4780 ca         1 D9J      -0.149500
     42 HBF        -24.4570    -7.9110     4.7580 ha         1 D9J       0.144000
     43 HBG        -25.2510    -6.4250     2.9600 ha         1 D9J       0.143000
     44 HBI        -22.8500    -8.5400     0.0890 ha         1 D9J       0.157000
     45 HBL        -20.0310   -13.8020     0.3890 hc         1 D9J       0.060700
     46 HBM        -21.4320   -14.1860     1.4050 hc         1 D9J       0.060700
     47 HBK        -21.6690   -13.6440    -0.2670 hc         1 D9J       0.060700
     48 HAD        -19.6870    -8.7830     3.1700 h1         1 D9J       0.071700
     49 HAC        -18.1070    -9.1750     0.5730 h1         1 D9J       0.077700
     50 HAY        -18.1400   -10.9870     2.0030 ho         1 D9J       0.538000
     51 HAF        -19.5250    -6.4030     2.9920 h1         1 D9J       0.063700
     52 HAH        -20.2780    -5.3110     0.2320 h1         1 D9J       0.046200
     53 HAI        -19.7040    -4.3310     1.5880 h1         1 D9J       0.046200
     54 HBN        -22.0500    -4.3940     1.3470 ho         1 D9J       0.513000
     55 HAA        -17.4940    -5.6160     1.8470 h1         1 D9J       0.063700
     56 HAJ        -17.0590    -6.0370    -0.2480 ho         1 D9J       0.513000
     57 HAB        -17.3800    -7.6780     3.1410 h1         1 D9J       0.107700
     58 HAL        -15.9540    -8.8250    -0.2560 h4         1 D9J       0.178000
     59 HAQ        -11.3070    -7.8830     0.9810 ha         1 D9J       0.148000
     60 HAU        -14.2910    -9.4520    -1.7490 ha         1 D9J       0.148000
@<TRIPOS>BOND
     1     1     2 1   
     2     2     3 1   
     3     2     4 1   
     4     2     5 1   
     5     5     6 ar  
     6     5    11 ar  
     7     6     7 ar  
     8     6    42 1   
     9     7     8 ar  
    10     7    43 1   
    11     8     9 1   
    12     8    10 ar  
    13    10    11 ar  
    14    10    44 1   
    15    11    12 1   
    16    12    13 1   
    17    12    17 1   
    18    13    14 2   
    19    14    15 1   
    20    14    16 1   
    21    15    45 1   
    22    15    46 1   
    23    15    47 1   
    24    16    17 2   
    25    17    18 1   
    26    18    19 1   
    27    18    21 1   
    28    18    48 1   
    29    19    20 1   
    30    19    27 1   
    31    19    49 1   
    32    20    50 1   
    33    21    22 1   
    34    22    23 1   
    35    22    25 1   
    36    22    51 1   
    37    23    24 1   
    38    23    52 1   
    39    23    53 1   
    40    24    54 1   
    41    25    26 1   
    42    25    27 1   
    43    25    55 1   
    44    26    56 1   
    45    27    28 1   
    46    27    57 1   
    47    28    29 1   
    48    28    30 1   
    49    29    32 2   
    50    29    58 1   
    51    30    31 2   
    52    31    32 1   
    53    32    33 1   
    54    33    34 ar  
    55    33    41 ar  
    56    34    35 ar  
    57    34    59 1   
    58    35    36 1   
    59    35    37 ar  
    60    37    38 1   
    61    37    39 ar  
    62    39    40 1   
    63    39    41 ar  
    64    41    60 1   
@<TRIPOS>SUBSTRUCTURE
     1 D9J         1 TEMP              0 ****  ****    0 ROOT
