@<TRIPOS>MOLECULE
D9K
   32    33     1     0     0
SMALL
No Charge or Current Charge


@<TRIPOS>ATOM
      1 O10         -3.3310     0.8510     1.2620 o          1 D9K      -0.513000
      2 C15          4.5930     1.0130     0.2660 ca         1 D9K       0.297900
      3 C14          3.5340     1.7390     0.8380 ca         1 D9K      -0.126000
      4 C12         -1.6110    -0.9950     0.3900 c6         1 D9K      -0.310400
      5 C02          3.1910    -0.7700    -0.2320 ca         1 D9K       0.299300
      6 C03          2.0500    -0.1080     0.3240 ca         1 D9K       0.253000
      7 N04          0.7670    -0.7030     0.3440 nu         1 D9K      -0.932200
      8 C05         -0.4910     0.0230     0.1590 c6         1 D9K       0.244500
      9 C06         -0.5400     0.6220    -1.2710 c6         1 D9K      -0.128400
     10 C07         -1.8460     1.4100    -1.5430 c6         1 D9K      -0.054400
     11 C08         -3.1000     0.5130    -1.3850 c6         1 D9K      -0.300400
     12 S09         -3.2390    -0.2260     0.2670 s6         1 D9K       1.082000
     13 O11         -4.2600    -1.2800     0.2300 o          1 D9K      -0.513000
     14 C13          2.2460     1.1750     0.8710 ca         1 D9K      -0.148000
     15 N16          4.4350    -0.2220    -0.2620 nb         1 D9K      -0.646000
     16 H2           3.7180     2.7270     1.2530 ha         1 D9K       0.122000
     17 H3          -1.5950    -1.7950    -0.3600 h1         1 D9K       0.109200
     18 H4          -1.5600    -1.4260     1.3960 h1         1 D9K       0.109200
     19 H5           2.3420    -2.1700    -1.6570 hc         1 D9K       0.048700
     20 H6           4.0330    -2.5040    -1.2650 hc         1 D9K       0.048700
     21 H7           2.7660    -2.8940    -0.0940 hc         1 D9K       0.048700
     22 H8           0.7560    -1.6900     0.0830 hn         1 D9K       0.467000
     23 H9          -0.5850     0.8340     0.9010 h1         1 D9K       0.086700
     24 H10          0.3130     1.2980    -1.4170 hc         1 D9K       0.059200
     25 H11         -0.4290    -0.1770    -2.0170 hc         1 D9K       0.059200
     26 H12         -1.9100     2.2720    -0.8630 hc         1 D9K       0.066200
     27 H13         -1.8170     1.8250    -2.5600 hc         1 D9K       0.066200
     28 H14         -4.0230     1.0860    -1.5380 h1         1 D9K       0.105200
     29 H15         -3.0770    -0.3280    -2.0890 h1         1 D9K       0.105200
     30 H16          1.4250     1.7260     1.3210 ha         1 D9K       0.119000
     31 H1           5.5980     1.4320     0.2310 h4         1 D9K       0.021100
     32 C01          3.0790    -2.1600    -0.8460 c3         1 D9K      -0.145400
@<TRIPOS>BOND
     1     1    12 2   
     2     2     3 ar  
     3     2    15 ar  
     4     2    31 1   
     5     3    14 ar  
     6     3    16 1   
     7     4     8 1   
     8     4    12 1   
     9     4    17 1   
    10     4    18 1   
    11     5     6 ar  
    12     5    15 ar  
    13     5    32 1   
    14     6     7 1   
    15     6    14 ar  
    16     7     8 1   
    17     7    22 1   
    18     8     9 1   
    19     8    23 1   
    20     9    10 1   
    21     9    24 1   
    22     9    25 1   
    23    10    11 1   
    24    10    26 1   
    25    10    27 1   
    26    11    12 1   
    27    11    28 1   
    28    11    29 1   
    29    12    13 2   
    30    14    30 1   
    31    19    32 1   
    32    20    32 1   
    33    21    32 1   
@<TRIPOS>SUBSTRUCTURE
     1 D9K         1 TEMP              0 ****  ****    0 ROOT
