@<TRIPOS>MOLECULE
D9K
   32    33     1     0     0
SMALL
bcc


@<TRIPOS>ATOM
      1 O10         -3.0910     0.7790     1.3850 o          1 D9K      -0.583800
      2 C15          4.5500     0.9660     0.4380 ca         1 D9K       0.363200
      3 C14          3.4470     1.7420     0.7410 ca         1 D9K      -0.209300
      4 C12         -1.5320    -1.0350     0.2640 c6         1 D9K      -0.199600
      5 C02          3.2390    -0.8330    -0.1290 ca         1 D9K       0.364600
      6 C03          2.0490    -0.1190     0.1490 ca         1 D9K       0.049300
      7 N04          0.8330    -0.7560     0.0190 nu         1 D9K      -0.738600
      8 C05         -0.4160    -0.0300    -0.0230 c6         1 D9K       0.244500
      9 C06         -0.6380     0.6960    -1.3540 c6         1 D9K      -0.128400
     10 C07         -1.9440     1.4840    -1.4170 c6         1 D9K      -0.054400
     11 C08         -3.1750     0.6040    -1.2510 c6         1 D9K      -0.189600
     12 S09         -3.1300    -0.2330     0.3260 s6         1 D9K       1.002000
     13 O11         -4.1760    -1.2530     0.3850 o          1 D9K      -0.583800
     14 C13          2.1810     1.1970     0.5910 ca         1 D9K      -0.166000
     15 N16          4.4360    -0.2900     0.0150 nb         1 D9K      -0.646000
     16 H2           3.5680     2.7610     1.0840 ha         1 D9K       0.140000
     17 H3          -1.5930    -1.8030    -0.5110 h1         1 D9K       0.109200
     18 H4          -1.3960    -1.5210     1.2330 h1         1 D9K       0.109200
     19 H5           2.6420    -2.3540    -1.5450 hc         1 D9K       0.048700
     20 H6           4.1770    -2.6510    -0.7340 hc         1 D9K       0.048700
     21 H7           2.6550    -2.8920     0.1290 hc         1 D9K       0.048700
     22 H8           0.8450    -1.5610    -0.5900 hn         1 D9K       0.411800
     23 H9          -0.4170     0.6970     0.7930 h1         1 D9K       0.086700
     24 H10          0.1930     1.3820    -1.5290 hc         1 D9K       0.059200
     25 H11         -0.6150    -0.0420    -2.1630 hc         1 D9K       0.059200
     26 H12         -1.9500     2.2760    -0.6650 hc         1 D9K       0.066200
     27 H13         -2.0200     1.9780    -2.3860 hc         1 D9K       0.066200
     28 H14         -4.1050     1.1760    -1.2670 h1         1 D9K       0.105200
     29 H15         -3.2270    -0.1710    -2.0190 h1         1 D9K       0.105200
     30 H16          1.3140     1.8000     0.8240 ha         1 D9K       0.137000
     31 H1           5.5550     1.3600     0.5370 h4         1 D9K       0.021100
     32 C01          3.1730    -2.2570    -0.5930 c3         1 D9K      -0.145400
@<TRIPOS>BOND
     1     1    12 2   
     2     2     3 ar  
     3     2    15 ar  
     4     2    31 1   
     5     3    14 ar  
     6     3    16 1   
     7     4     8 1   
     8     4    12 1   
     9     4    17 1   
    10     4    18 1   
    11     5     6 ar  
    12     5    15 ar  
    13     5    32 1   
    14     6     7 1   
    15     6    14 ar  
    16     7     8 1   
    17     7    22 1   
    18     8     9 1   
    19     8    23 1   
    20     9    10 1   
    21     9    24 1   
    22     9    25 1   
    23    10    11 1   
    24    10    26 1   
    25    10    27 1   
    26    11    12 1   
    27    11    28 1   
    28    11    29 1   
    29    12    13 2   
    30    14    30 1   
    31    19    32 1   
    32    20    32 1   
    33    21    32 1   
@<TRIPOS>SUBSTRUCTURE
     1 D9K         1 TEMP              0 ****  ****    0 ROOT
