@<TRIPOS>MOLECULE
D9L
   26    25     1     0     0
SMALL
No Charge or Current Charge


@<TRIPOS>ATOM
      1 C10        127.3610   -27.2810    54.9390 c3         1 D9L      -0.127400
      2 C11        125.9050   -26.8690    54.5670 c3         1 D9L      -0.207400
      3 C12        125.1840   -27.9980    53.8110 c          1 D9L       0.729000
      4 C02        127.3980   -28.4400    55.9480 c          1 D9L       0.676700
      5 C04        127.3110   -31.2070    56.5870 c3         1 D9L       0.042600
      6 C05        125.7900   -31.1860    56.8790 c3         1 D9L       0.114000
      7 C07        124.7460   -32.5350    55.0040 c          1 D9L       0.599100
      8 C08        124.9850   -33.8510    55.7520 c3         1 D9L      -0.183100
      9 N06        124.9690   -31.3590    55.6750 ns         1 D9L      -0.495900
     10 O01        127.1970   -28.2840    57.1460 o          1 D9L      -0.546100
     11 O09        124.3020   -32.5160    53.8670 o          1 D9L      -0.616100
     12 O13        125.2960   -28.0390    52.5960 o          1 D9L      -0.739000
     13 O14        124.5800   -28.8310    54.4690 o          1 D9L      -0.739000
     14 S03        127.7690   -30.0610    55.2000 ss         1 D9L      -0.404600
     15 H1         127.8770   -27.5780    54.0180 hc         1 D9L       0.044700
     16 H2         127.8610   -26.4130    55.3840 hc         1 D9L       0.044700
     17 H3         125.3970   -26.6570    55.5160 hc         1 D9L       0.033200
     18 H4         126.0070   -25.9890    53.9200 hc         1 D9L       0.033200
     19 H5         127.6120   -32.2230    56.3020 h1         1 D9L       0.057200
     20 H6         127.8670   -30.9320    57.4920 h1         1 D9L       0.057200
     21 H7         125.5190   -30.2250    57.3320 h1         1 D9L       0.050200
     22 H8         125.5470   -31.9650    57.6130 h1         1 D9L       0.050200
     23 H9         124.6920   -34.7280    55.1630 hc         1 D9L       0.043033
     24 H10        126.0340   -33.9150    56.0580 hc         1 D9L       0.043033
     25 H11        124.4580   -33.8220    56.7130 hc         1 D9L       0.043033
     26 H12        124.7540   -30.5160    55.1370 hn         1 D9L       0.399500
@<TRIPOS>BOND
     1     1     2 1   
     2     1     4 1   
     3     1    15 1   
     4     1    16 1   
     5     2     3 1   
     6     2    17 1   
     7     2    18 1   
     8     3    12 1   
     9     3    13 1   
    10     4    10 2   
    11     4    14 1   
    12     5     6 1   
    13     5    14 1   
    14     5    19 1   
    15     5    20 1   
    16     6     9 1   
    17     6    21 1   
    18     6    22 1   
    19     7     8 1   
    20     7     9 1   
    21     7    11 2   
    22     8    23 1   
    23     8    24 1   
    24     8    25 1   
    25     9    26 1   
@<TRIPOS>SUBSTRUCTURE
     1 D9L         1 TEMP              0 ****  ****    0 ROOT
