@<TRIPOS>MOLECULE
D9L
   26    25     1     0     0
SMALL
abcg2


@<TRIPOS>ATOM
      1 C10        127.4580   -27.5500    54.7850 c3         1 D9L      -0.127400
      2 C11        126.2060   -26.7690    54.4120 c3         1 D9L      -0.207400
      3 C12        125.0400   -27.6620    53.9500 c          1 D9L       0.729000
      4 C02        127.1840   -28.5250    55.9000 c          1 D9L       0.676700
      5 C04        127.0980   -31.1110    56.9330 c3         1 D9L       0.042600
      6 C05        125.5730   -31.2080    56.8250 c3         1 D9L       0.114000
      7 C07        124.9300   -32.6660    54.9090 c          1 D9L       0.599100
      8 C08        125.1620   -33.8850    55.7730 c3         1 D9L      -0.183100
      9 N06        125.0800   -31.4650    55.4960 ns         1 D9L      -0.495900
     10 O01        126.6140   -28.2330    56.9210 o          1 D9L      -0.546100
     11 O09        124.6000   -32.7700    53.7330 o          1 D9L      -0.616100
     12 O13        124.0720   -27.0920    53.4230 o          1 D9L      -0.739000
     13 O14        125.1680   -28.8910    54.1590 o          1 D9L      -0.739000
     14 S03        127.8620   -30.1390    55.6110 ss         1 D9L      -0.404600
     15 H1         127.8670   -28.0660    53.9160 hc         1 D9L       0.044700
     16 H2         128.2350   -26.8640    55.1410 hc         1 D9L       0.044700
     17 H3         125.8700   -26.1720    55.2650 hc         1 D9L       0.033200
     18 H4         126.4480   -26.0460    53.6280 hc         1 D9L       0.033200
     19 H5         127.5550   -32.0970    56.8360 h1         1 D9L       0.057200
     20 H6         127.3810   -30.7150    57.9080 h1         1 D9L       0.057200
     21 H7         125.1260   -30.2760    57.1650 h1         1 D9L       0.050200
     22 H8         125.2360   -31.9790    57.5180 h1         1 D9L       0.050200
     23 H9         124.9880   -34.7840    55.1890 hc         1 D9L       0.043033
     24 H10        126.1830   -33.9170    56.1580 hc         1 D9L       0.043033
     25 H11        124.4940   -33.8980    56.6350 hc         1 D9L       0.043033
     26 H12        124.9880   -30.6420    54.9020 hn         1 D9L       0.399500
@<TRIPOS>BOND
     1     1     2 1   
     2     1     4 1   
     3     1    15 1   
     4     1    16 1   
     5     2     3 1   
     6     2    17 1   
     7     2    18 1   
     8     3    12 1   
     9     3    13 1   
    10     4    10 2   
    11     4    14 1   
    12     5     6 1   
    13     5    14 1   
    14     5    19 1   
    15     5    20 1   
    16     6     9 1   
    17     6    21 1   
    18     6    22 1   
    19     7     8 1   
    20     7     9 1   
    21     7    11 2   
    22     8    23 1   
    23     8    24 1   
    24     8    25 1   
    25     9    26 1   
@<TRIPOS>SUBSTRUCTURE
     1 D9L         1 TEMP              0 ****  ****    0 ROOT
