@<TRIPOS>MOLECULE
D9M
   46    49     1     0     0
SMALL
abcg2


@<TRIPOS>ATOM
      1 O3          -4.3090     9.7840     5.2790 os         1 D9M      -0.441000
      2 C4          -5.1960     0.7840     6.4970 ca         1 D9M      -0.046300
      3 C6          -3.2990     3.8930     7.4470 c6         1 D9M       0.169500
      4 N1          -4.2910     2.8360     7.4840 n7         1 D9M      -0.884400
      5 C7          -2.9180     4.2940     8.8920 c5         1 D9M       0.117300
      6 C8          -1.4190     4.5690     9.0850 c5         1 D9M       0.127600
      7 N2          -3.3400     7.5390     6.3910 n3         1 D9M      -0.750600
      8 C9          -2.5960     6.4300     8.5600 c5         1 D9M       0.337300
      9 C10         -2.8210     6.3460     7.0280 c6         1 D9M       0.106500
     10 C11         -3.7320     5.1580     6.6970 c6         1 D9M       0.146300
     11 C12         -2.3840     8.6170     6.2400 c6         1 D9M       0.141300
     12 C13         -2.9070     9.6000     5.1950 c6         1 D9M       0.152100
     13 C14         -4.8110     9.4890     6.5590 c6         1 D9M       0.152100
     14 C15         -4.6330     8.0090     6.8840 c6         1 D9M       0.141300
     15 O2          -3.7330     4.9280     5.3090 oh         1 D9M      -0.665000
     16 O           -1.3110     5.9760     8.9080 os         1 D9M      -0.463000
     17 O1          -3.4730     5.5610     9.2220 os         1 D9M      -0.444000
     18 C           -5.7370     0.0770     5.4250 ca         1 D9M      -0.159000
     19 C3          -5.3100     0.2060     7.7550 ca         1 D9M      -0.159000
     20 C2          -5.9420    -1.0230     7.8800 ca         1 D9M       0.331400
     21 N           -6.4520    -1.7000     6.8580 nb         1 D9M      -0.666000
     22 C1          -6.3420    -1.1460     5.6540 ca         1 D9M       0.331400
     23 H1          -3.5290     1.8900     5.8140 h1         1 D9M       0.054700
     24 H2          -5.0670     2.6520     5.4940 h1         1 D9M       0.054700
     25 H3          -2.4130     3.4800     6.9520 h1         1 D9M       0.077700
     26 H4          -5.1700     3.1920     7.8400 hn         1 D9M       0.424000
     27 H6          -3.2960     3.5480     9.5910 h1         1 D9M       0.108700
     28 H7          -0.7970     4.0300     8.3670 h1         1 D9M       0.061200
     29 H8          -1.0910     4.3030    10.0920 h1         1 D9M       0.061200
     30 H10         -2.7320     7.4440     8.9460 h2         1 D9M       0.102700
     31 H11         -1.8480     6.1490     6.5630 h1         1 D9M       0.085700
     32 H12         -4.7500     5.3910     7.0420 h1         1 D9M       0.042700
     33 H13         -1.4360     8.2110     5.8830 h1         1 D9M       0.045200
     34 H14         -2.1590     9.1320     7.1860 h1         1 D9M       0.045200
     35 H15         -2.6970     9.2160     4.1940 h1         1 D9M       0.048450
     36 H16         -2.3810    10.5570     5.3020 h1         1 D9M       0.048450
     37 H17         -4.3320    10.1120     7.3260 h1         1 D9M       0.048450
     38 H18         -5.8720     9.7400     6.5650 h1         1 D9M       0.048450
     39 H19         -4.7570     7.8910     7.9700 h1         1 D9M       0.045200
     40 H20         -5.4350     7.4330     6.4150 h1         1 D9M       0.045200
     41 H21         -3.8060     5.7980     4.8950 ho         1 D9M       0.471000
     42 H22         -5.6870     0.4730     4.4180 ha         1 D9M       0.127500
     43 H23         -4.9150     0.7040     8.6300 ha         1 D9M       0.127500
     44 H24         -6.0400    -1.4800     8.8580 h4         1 D9M       0.016600
     45 H25         -6.7610    -1.7050     4.8240 h4         1 D9M       0.016600
     46 C5          -4.5060     2.1020     6.2590 c3         1 D9M       0.217100
@<TRIPOS>BOND
     1     1    12 1   
     2     1    13 1   
     3     2    18 ar  
     4     2    19 ar  
     5     2    46 1   
     6     3     4 1   
     7     3     5 1   
     8     3    10 1   
     9     3    25 1   
    10     4    26 1   
    11     4    46 1   
    12     5     6 1   
    13     5    17 1   
    14     5    27 1   
    15     6    16 1   
    16     6    28 1   
    17     6    29 1   
    18     7     9 1   
    19     7    11 1   
    20     7    14 1   
    21     8     9 1   
    22     8    16 1   
    23     8    17 1   
    24     8    30 1   
    25     9    10 1   
    26     9    31 1   
    27    10    15 1   
    28    10    32 1   
    29    11    12 1   
    30    11    33 1   
    31    11    34 1   
    32    12    35 1   
    33    12    36 1   
    34    13    14 1   
    35    13    37 1   
    36    13    38 1   
    37    14    39 1   
    38    14    40 1   
    39    15    41 1   
    40    18    22 ar  
    41    18    42 1   
    42    19    20 ar  
    43    19    43 1   
    44    20    21 ar  
    45    20    44 1   
    46    21    22 ar  
    47    22    45 1   
    48    23    46 1   
    49    24    46 1   
@<TRIPOS>SUBSTRUCTURE
     1 D9M         1 TEMP              0 ****  ****    0 ROOT
