@<TRIPOS>MOLECULE
D9M
   46    49     1     0     0
SMALL
No Charge or Current Charge


@<TRIPOS>ATOM
      1 O3          -3.9640     9.5920     4.7630 os         1 D9M      -0.441000
      2 C4          -5.1740     0.7270     6.5530 ca         1 D9M      -0.046300
      3 C6          -3.0490     3.7800     7.5740 c6         1 D9M       0.169500
      4 N1          -4.0290     2.6500     7.5800 n7         1 D9M      -0.884400
      5 C7          -2.8160     4.2820     9.0460 c5         1 D9M       0.117300
      6 C8          -1.3810     4.8720     9.2800 c5         1 D9M       0.127600
      7 N2          -3.2200     7.4760     6.2430 n3         1 D9M      -0.750600
      8 C9          -2.8770     6.5190     8.6540 c5         1 D9M       0.337300
      9 C10         -2.7770     6.3020     7.0840 c6         1 D9M       0.106500
     10 C11         -3.5100     4.9890     6.6760 c6         1 D9M       0.146300
     11 C12         -2.3210     8.6670     6.3980 c6         1 D9M       0.141300
     12 C13         -2.7710     9.8890     5.5300 c6         1 D9M       0.152100
     13 C14         -5.0600     9.1300     5.5890 c6         1 D9M       0.152100
     14 C15         -4.6660     7.8560     6.4080 c6         1 D9M       0.141300
     15 O2          -3.2960     4.7810     5.2710 oh         1 D9M      -0.665000
     16 O           -1.5880     6.3110     9.2650 os         1 D9M      -0.463000
     17 O1          -3.6330     5.4580     9.2760 os         1 D9M      -0.444000
     18 C           -6.5380     0.8280     6.2210 ca         1 D9M      -0.159000
     19 C3          -4.7280    -0.4870     7.1060 ca         1 D9M      -0.159000
     20 C2          -5.6430    -1.5350     7.3010 ca         1 D9M       0.331400
     21 N           -6.9540    -1.4380     6.9780 nb         1 D9M      -0.666000
     22 C1          -7.3860    -0.2700     6.4480 ca         1 D9M       0.331400
     23 H1          -3.2560     1.4950     5.9670 h1         1 D9M       0.054700
     24 H2          -4.6230     2.5320     5.5340 h1         1 D9M       0.054700
     25 H3          -2.0890     3.4010     7.1890 h1         1 D9M       0.077700
     26 H4          -4.9460     3.0070     7.8750 hn         1 D9M       0.424000
     27 H6          -3.0570     3.4900     9.7680 h1         1 D9M       0.108700
     28 H7          -0.6700     4.5860     8.4940 h1         1 D9M       0.061200
     29 H8          -0.9660     4.5770    10.2530 h1         1 D9M       0.061200
     30 H10         -3.2820     7.5040     8.9180 h2         1 D9M       0.102700
     31 H11         -1.7120     6.1310     6.8630 h1         1 D9M       0.085700
     32 H12         -4.5840     5.1360     6.8600 h1         1 D9M       0.042700
     33 H13         -1.2910     8.4010     6.1210 h1         1 D9M       0.045200
     34 H14         -2.2890     8.9900     7.4490 h1         1 D9M       0.045200
     35 H15         -1.9650    10.1680     4.8370 h1         1 D9M       0.048450
     36 H16         -2.9680    10.7530     6.1810 h1         1 D9M       0.048450
     37 H17         -5.3540     9.9360     6.2760 h1         1 D9M       0.048450
     38 H18         -5.9220     8.9070     4.9450 h1         1 D9M       0.048450
     39 H19         -4.9010     8.0470     7.4650 h1         1 D9M       0.045200
     40 H20         -5.3200     7.0330     6.0860 h1         1 D9M       0.045200
     41 H21         -3.2490     5.7020     4.9180 ho         1 D9M       0.471000
     42 H22         -6.9430     1.7410     5.7930 ha         1 D9M       0.127500
     43 H23         -3.6870    -0.6190     7.3860 ha         1 D9M       0.127500
     44 H24         -5.3170    -2.4820     7.7280 h4         1 D9M       0.016600
     45 H25         -8.4450    -0.2130     6.1970 h4         1 D9M       0.016600
     46 C5          -4.2170     1.8900     6.3270 c3         1 D9M       0.217100
@<TRIPOS>BOND
     1     1    12 1   
     2     1    13 1   
     3     2    18 ar  
     4     2    19 ar  
     5     2    46 1   
     6     3     4 1   
     7     3     5 1   
     8     3    10 1   
     9     3    25 1   
    10     4    26 1   
    11     4    46 1   
    12     5     6 1   
    13     5    17 1   
    14     5    27 1   
    15     6    16 1   
    16     6    28 1   
    17     6    29 1   
    18     7     9 1   
    19     7    11 1   
    20     7    14 1   
    21     8     9 1   
    22     8    16 1   
    23     8    17 1   
    24     8    30 1   
    25     9    10 1   
    26     9    31 1   
    27    10    15 1   
    28    10    32 1   
    29    11    12 1   
    30    11    33 1   
    31    11    34 1   
    32    12    35 1   
    33    12    36 1   
    34    13    14 1   
    35    13    37 1   
    36    13    38 1   
    37    14    39 1   
    38    14    40 1   
    39    15    41 1   
    40    18    22 ar  
    41    18    42 1   
    42    19    20 ar  
    43    19    43 1   
    44    20    21 ar  
    45    20    44 1   
    46    21    22 ar  
    47    22    45 1   
    48    23    46 1   
    49    24    46 1   
@<TRIPOS>SUBSTRUCTURE
     1 D9M         1 TEMP              0 ****  ****    0 ROOT
