@<TRIPOS>MOLECULE
D9N
   64    67     1     0     0
SMALL
bcc


@<TRIPOS>ATOM
      1 C1          -5.0870    -5.1950    -0.0640 ca         1 D9N      -0.286300
      2 C2          -3.8710    -4.5240    -0.1160 ca         1 D9N      -0.064000
      3 C3          -6.0250     3.1810     1.2720 ca         1 D9N      -0.076000
      4 C7           5.2030    -1.3900    -0.5850 ca         1 D9N      -0.129500
      5 C8           5.1020    -0.7100     1.7140 ca         1 D9N      -0.129500
      6 C9           6.2590    -0.5230    -0.8050 ca         1 D9N      -0.032000
      7 C10          6.1620     0.1610     1.5130 ca         1 D9N      -0.032000
      8 C11         -1.3190    -3.0540     0.3850 cc         1 D9N      -0.211000
      9 C12         -6.2330    -4.4400     0.0610 ca         1 D9N       0.445200
     10 C13         -2.2820    -1.1950    -0.5910 cd         1 D9N      -0.125100
     11 C14         -3.8150    -3.1390    -0.0450 ca         1 D9N      -0.138300
     12 C15         -2.5230    -2.4410    -0.0850 cc         1 D9N      -0.025000
     13 C16         -5.4260     3.7400     0.1470 ca         1 D9N      -0.135600
     14 C19          6.7310     0.2460     0.2510 ca         1 D9N      -0.261500
     15 C20         -5.0600    -2.4850     0.0800 ca         1 D9N       0.661600
     16 C21         -0.2220    -2.2670     0.2160 cd         1 D9N       0.055500
     17 C22         -5.1530     5.1990     0.1470 c          1 D9N       0.654700
     18 C24         10.8090     1.1350     0.0580 c3         1 D9N      -0.071100
     19 C27         -6.2880    -0.4670     0.2840 c3         1 D9N       0.190700
     20 N29         -6.2140    -3.1100     0.1350 nb         1 D9N      -0.764000
     21 C4          -5.1060     2.9180    -0.9350 ca         1 D9N      -0.076000
     22 C5          -6.2950     1.8230     1.3190 ca         1 D9N      -0.126500
     23 C6          -5.3860     1.5640    -0.8840 ca         1 D9N      -0.126500
     24 C17          4.6140    -1.4910     0.6730 ca         1 D9N      -0.018300
     25 C18         -5.9810     1.0010     0.2430 ca         1 D9N      -0.064300
     26 C23          2.1530    -1.8100     0.4010 c          1 D9N       0.663100
     27 C26          3.4540    -2.4140     0.8890 c3         1 D9N      -0.118100
     28 C28          9.5400     0.3210     0.2400 c3         1 D9N      -0.183600
     29 N30          1.0680    -2.5970     0.5910 ns         1 D9N      -0.447100
     30 O31         -5.4200     5.9310     1.0700 o          1 D9N      -0.538000
     31 O32          2.0680    -0.7150    -0.1210 o          1 D9N      -0.559100
     32 O33          8.0750     1.7750    -1.4160 o          1 D9N      -0.590800
     33 O34          8.0690     2.3760     1.0220 o          1 D9N      -0.590800
     34 O35         -5.0470    -1.1520     0.1580 os         1 D9N      -0.433100
     35 O36         -4.5850     5.6130    -0.9730 os         1 D9N      -0.416900
     36 S37         -0.6240    -0.7580    -0.5210 ss         1 D9N       0.017200
     37 H1          -5.1360    -6.2730    -0.1230 ha         1 D9N       0.144000
     38 H2          -2.9560    -5.0900    -0.2290 ha         1 D9N       0.138000
     39 H3          -6.2780     3.8050     2.1190 ha         1 D9N       0.152500
     40 H4           4.8350    -1.9940    -1.4040 ha         1 D9N       0.138000
     41 H5           4.6530    -0.7780     2.6970 ha         1 D9N       0.138000
     42 H6           6.7010    -0.4510    -1.7900 ha         1 D9N       0.156500
     43 H7           6.5300     0.7620     2.3330 ha         1 D9N       0.156500
     44 H8          -1.2750    -4.0290     0.8520 ha         1 D9N       0.145000
     45 H9          -7.2090    -4.9090     0.1070 h4         1 D9N       0.020100
     46 H10         -2.9820    -0.5040    -1.0320 h4         1 D9N       0.178000
     47 H11         10.8800     1.9410     0.7860 hc         1 D9N       0.054033
     48 H12         11.6680     0.4800     0.2000 hc         1 D9N       0.054033
     49 H13         10.8750     1.5570    -0.9430 hc         1 D9N       0.054033
     50 H14         -6.7830    -0.7360     1.2200 h1         1 D9N       0.059200
     51 H15         -6.9590    -0.7390    -0.5340 h1         1 D9N       0.059200
     52 H16         -4.6450     3.3250    -1.8230 ha         1 D9N       0.152500
     53 H17         -6.7530     1.4000     2.2040 ha         1 D9N       0.138500
     54 H18         -5.1410     0.9430    -1.7370 ha         1 D9N       0.138500
     55 H19         -3.8300     7.1290    -2.0660 h1         1 D9N       0.049367
     56 H20         -5.1730     7.6160    -1.0120 h1         1 D9N       0.049367
     57 H21         -3.5640     7.3130    -0.3200 h1         1 D9N       0.049367
     58 H22          3.6170    -3.3610     0.3660 hc         1 D9N       0.072200
     59 H23          3.3500    -2.6650     1.9470 hc         1 D9N       0.072200
     60 H24          9.4770    -0.4990    -0.4770 h1         1 D9N       0.092700
     61 H25          9.4610    -0.0940     1.2460 h1         1 D9N       0.092700
     62 H26          1.1900    -3.5000     1.0270 hn         1 D9N       0.323500
     63 S38          8.0940     1.3470    -0.0170 sy         1 D9N       1.071300
     64 C25         -4.2760     7.0020    -1.0850 c3         1 D9N       0.130700
@<TRIPOS>BOND
     1     1     2 ar  
     2     1     9 ar  
     3     1    37 1   
     4     2    11 ar  
     5     2    38 1   
     6     3    13 ar  
     7     3    22 ar  
     8     3    39 1   
     9     4     6 ar  
    10     4    24 ar  
    11     4    40 1   
    12     5     7 ar  
    13     5    24 ar  
    14     5    41 1   
    15     6    14 ar  
    16     6    42 1   
    17     7    14 ar  
    18     7    43 1   
    19     8    12 1   
    20     8    16 2   
    21     8    44 1   
    22     9    20 ar  
    23     9    45 1   
    24    10    12 2   
    25    10    36 1   
    26    10    46 1   
    27    11    12 1   
    28    11    15 ar  
    29    13    17 1   
    30    13    21 ar  
    31    14    63 1   
    32    15    20 ar  
    33    15    34 1   
    34    16    29 1   
    35    16    36 1   
    36    17    30 2   
    37    17    35 1   
    38    18    28 1   
    39    18    47 1   
    40    18    48 1   
    41    18    49 1   
    42    19    25 1   
    43    19    34 1   
    44    19    50 1   
    45    19    51 1   
    46    21    23 ar  
    47    21    52 1   
    48    22    25 ar  
    49    22    53 1   
    50    23    25 ar  
    51    23    54 1   
    52    24    27 1   
    53    26    27 1   
    54    26    29 1   
    55    26    31 2   
    56    27    58 1   
    57    27    59 1   
    58    28    60 1   
    59    28    61 1   
    60    28    63 1   
    61    29    62 1   
    62    32    63 2   
    63    33    63 2   
    64    35    64 1   
    65    55    64 1   
    66    56    64 1   
    67    57    64 1   
@<TRIPOS>SUBSTRUCTURE
     1 D9N         1 TEMP              0 ****  ****    0 ROOT
