@<TRIPOS>MOLECULE
D9N
   64    67     1     0     0
SMALL
No Charge or Current Charge


@<TRIPOS>ATOM
      1 C1          -4.2250    -4.9240     1.7640 ca         1 D9N      -0.203000
      2 C2          -3.1800    -4.3040     1.0660 ca         1 D9N      -0.046000
      3 C3          -5.0940     3.5710     1.2880 ca         1 D9N      -0.058000
      4 C7           5.2790    -0.5410    -1.6730 ca         1 D9N      -0.111500
      5 C8           4.6950    -1.9140     0.2440 ca         1 D9N      -0.111500
      6 C9           6.1480     0.2180    -0.8700 ca         1 D9N      -0.014000
      7 C10          5.5610    -1.1600     1.0530 ca         1 D9N      -0.014000
      8 C11         -0.8550    -2.8060    -0.1530 cc         1 D9N      -0.193000
      9 C12         -5.3610    -4.1820     2.0980 ca         1 D9N       0.379900
     10 C13         -2.4130    -1.2410    -0.8840 cd         1 D9N      -0.252000
     11 C14         -3.3000    -2.9440     0.7040 ca         1 D9N      -0.073000
     12 C15         -2.1880    -2.3130    -0.0460 cc         1 D9N      -0.025000
     13 C16         -5.3190     3.9440    -0.0560 ca         1 D9N      -0.135600
     14 C19          6.2900    -0.0870     0.4990 ca         1 D9N      -0.261500
     15 C20         -4.4930    -2.2670     1.1080 ca         1 D9N       0.596300
     16 C21         -0.0560    -2.0860    -0.9960 cd         1 D9N      -0.089400
     17 C22         -5.1370     5.3850    -0.4780 c          1 D9N       0.605700
     18 C24         10.1350     0.6230     2.1810 c3         1 D9N      -0.071100
     19 C27         -5.8240    -0.1980     1.2150 c3         1 D9N       0.213900
     20 N29         -5.4960    -2.8790     1.7870 nb         1 D9N      -0.764000
     21 C4          -5.7110     2.9480    -0.9800 ca         1 D9N      -0.058000
     22 C5          -5.2580     2.2360     1.6980 ca         1 D9N      -0.108500
     23 C6          -5.8740     1.6140    -0.5660 ca         1 D9N      -0.108500
     24 C17          4.5480    -1.6110    -1.1230 ca         1 D9N      -0.018300
     25 C18         -5.6510     1.2500     0.7750 ca         1 D9N      -0.064300
     26 C23          2.2100    -1.7970    -2.0190 c          1 D9N       0.596100
     27 C26          3.6060    -2.4280    -1.9980 c3         1 D9N      -0.118100
     28 C28          8.9800    -0.0150     1.3710 c3         1 D9N      -0.294400
     29 N30          1.2780    -2.4200    -1.2040 ns         1 D9N      -0.380100
     30 O31         -4.7980     6.2680     0.3010 o          1 D9N      -0.489000
     31 O32          1.9580    -0.8120    -2.7000 o          1 D9N      -0.559100
     32 O33          7.6080     2.1950     0.9140 o          1 D9N      -0.520000
     33 O34          6.9920     0.7490     2.9340 o          1 D9N      -0.520000
     34 O35         -4.6250    -0.9170     0.8720 os         1 D9N      -0.456300
     35 O36         -5.3860     5.6080    -1.8100 os         1 D9N      -0.440100
     36 S37         -0.9450    -0.7390    -1.7420 ss         1 D9N       0.307000
     37 H1          -4.1610    -5.9730     2.0420 ha         1 D9N       0.126000
     38 H2          -2.3080    -4.8900     0.7900 ha         1 D9N       0.120000
     39 H3          -4.7900     4.3150     2.0210 ha         1 D9N       0.134500
     40 H4           5.1740    -0.2940    -2.7270 ha         1 D9N       0.120000
     41 H5           4.1370    -2.7380     0.6840 ha         1 D9N       0.120000
     42 H6           6.7050     1.0400    -1.3170 ha         1 D9N       0.138500
     43 H7           5.6620    -1.4140     2.1080 ha         1 D9N       0.138500
     44 H8          -0.5040    -3.6690     0.4030 ha         1 D9N       0.127000
     45 H9          -6.1870    -4.6420     2.6400 h4         1 D9N       0.020100
     46 H10         -3.3310    -0.7110    -1.0920 h4         1 D9N       0.160000
     47 H11          9.8990     0.6450     3.2520 hc         1 D9N       0.054033
     48 H12         11.0580     0.0460     2.0490 hc         1 D9N       0.054033
     49 H13         10.3270     1.6510     1.8480 hc         1 D9N       0.054033
     50 H14         -6.0070    -0.2360     2.2970 h1         1 D9N       0.059200
     51 H15         -6.6960    -0.6300     0.7070 h1         1 D9N       0.059200
     52 H16         -5.8910     3.1970    -2.0240 ha         1 D9N       0.134500
     53 H17         -5.0760     1.9690     2.7370 ha         1 D9N       0.120500
     54 H18         -6.1730     0.8610    -1.2910 ha         1 D9N       0.120500
     55 H19         -5.4700     6.9810    -3.3860 h1         1 D9N       0.049367
     56 H20         -5.9250     7.6370    -1.8000 h1         1 D9N       0.049367
     57 H21         -4.2140     7.3110    -2.1750 h1         1 D9N       0.049367
     58 H22          3.9910    -2.4570    -3.0230 hc         1 D9N       0.072200
     59 H23          3.5490    -3.4510    -1.6070 hc         1 D9N       0.072200
     60 H24          9.2280    -0.0330     0.3040 h1         1 D9N       0.092700
     61 H25          8.7990    -1.0410     1.7110 h1         1 D9N       0.092700
     62 H26          1.6500    -3.2190    -0.7050 hn         1 D9N       0.323500
     63 S38          7.4130     0.8770     1.5320 sy         1 D9N       1.040500
     64 C25         -5.2410     6.9490    -2.3140 c3         1 D9N       0.153900
@<TRIPOS>BOND
     1     1     2 ar  
     2     1     9 ar  
     3     1    37 1   
     4     2    11 ar  
     5     2    38 1   
     6     3    13 ar  
     7     3    22 ar  
     8     3    39 1   
     9     4     6 ar  
    10     4    24 ar  
    11     4    40 1   
    12     5     7 ar  
    13     5    24 ar  
    14     5    41 1   
    15     6    14 ar  
    16     6    42 1   
    17     7    14 ar  
    18     7    43 1   
    19     8    12 1   
    20     8    16 2   
    21     8    44 1   
    22     9    20 ar  
    23     9    45 1   
    24    10    12 2   
    25    10    36 1   
    26    10    46 1   
    27    11    12 1   
    28    11    15 ar  
    29    13    17 1   
    30    13    21 ar  
    31    14    63 1   
    32    15    20 ar  
    33    15    34 1   
    34    16    29 1   
    35    16    36 1   
    36    17    30 2   
    37    17    35 1   
    38    18    28 1   
    39    18    47 1   
    40    18    48 1   
    41    18    49 1   
    42    19    25 1   
    43    19    34 1   
    44    19    50 1   
    45    19    51 1   
    46    21    23 ar  
    47    21    52 1   
    48    22    25 ar  
    49    22    53 1   
    50    23    25 ar  
    51    23    54 1   
    52    24    27 1   
    53    26    27 1   
    54    26    29 1   
    55    26    31 2   
    56    27    58 1   
    57    27    59 1   
    58    28    60 1   
    59    28    61 1   
    60    28    63 1   
    61    29    62 1   
    62    32    63 2   
    63    33    63 2   
    64    35    64 1   
    65    55    64 1   
    66    56    64 1   
    67    57    64 1   
@<TRIPOS>SUBSTRUCTURE
     1 D9N         1 TEMP              0 ****  ****    0 ROOT
