@<TRIPOS>MOLECULE
D9P
   56    60     1     0     0
SMALL
bcc


@<TRIPOS>ATOM
      1 O11          0.6020    -1.0700    -1.5390 o          1 D9P      -0.526100
      2 C11          0.6500    -0.0590    -0.8680 c          1 D9P       0.584700
      3 C10         -0.6230     0.6760    -0.5060 c3         1 D9P      -0.175400
      4 C9          -1.8880    -0.1410    -0.7230 c3         1 D9P      -0.068400
      5 C8          -3.1470     0.6710    -0.4490 c3         1 D9P      -0.076400
      6 C7          -4.4210    -0.1440    -0.6360 c3         1 D9P      -0.075400
      7 C2          -5.6820     0.6740    -0.3830 c3         1 D9P      -0.102400
      8 C4          -6.9670    -0.0920    -0.6900 c5         1 D9P       0.097700
      9 C5          -8.2690     0.6600    -0.3380 c5         1 D9P       0.086700
     10 C6          -8.2260     2.1690    -0.4490 c3         1 D9P      -0.094100
     11 N1          -8.4890     0.2010     1.0250 ns         1 D9P      -0.560900
     12 N2          -7.1360    -1.2800     0.1300 ns         1 D9P      -0.571900
     13 C3          -7.9300    -1.0320     1.2100 c          1 D9P       0.786500
     14 O3          -8.1080    -1.7740     2.1640 o          1 D9P      -0.651500
     15 C1           1.9470     0.5150    -0.4030 ca         1 D9P      -0.161600
     16 C16          3.1370    -0.2450    -0.3010 ca         1 D9P       0.031000
     17 C15          4.3410     0.4150     0.0760 ca         1 D9P      -0.031000
     18 C17          3.2020    -1.6650    -0.5130 ca         1 D9P      -0.116000
     19 C18          4.3640    -2.3480    -0.3990 ca         1 D9P      -0.107000
     20 C19          5.5900    -1.6990    -0.0640 ca         1 D9P      -0.038000
     21 C20          5.5620    -0.3080     0.1840 ca         1 D9P      -0.013000
     22 C24          6.7950    -2.3960     0.0370 ca         1 D9P      -0.103000
     23 C25          7.9640    -1.7350     0.3780 ca         1 D9P      -0.127000
     24 C26          7.9490    -0.3710     0.6300 ca         1 D9P      -0.106000
     25 C21          6.7620     0.3570     0.5400 ca         1 D9P      -0.041000
     26 C22          6.7260     1.7640     0.8000 ca         1 D9P      -0.098000
     27 C23          5.5690     2.4560     0.7080 ca         1 D9P      -0.127000
     28 C14          4.3460     1.8070     0.3450 ca         1 D9P      -0.005000
     29 C13          3.1510     2.5190     0.2550 ca         1 D9P      -0.133000
     30 C12          1.9840     1.8780    -0.1030 ca         1 D9P      -0.094000
     31 H1          -0.5660     1.0200     0.5300 hc         1 D9P       0.061700
     32 H2          -0.6630     1.5880    -1.1130 hc         1 D9P       0.061700
     33 H3          -1.9200    -0.5170    -1.7480 hc         1 D9P       0.053700
     34 H4          -1.8720    -1.0190    -0.0710 hc         1 D9P       0.053700
     35 H5          -3.1190     1.0720     0.5700 hc         1 D9P       0.037700
     36 H6          -3.1710     1.5390    -1.1180 hc         1 D9P       0.037700
     37 H7          -4.4460    -0.5490    -1.6530 hc         1 D9P       0.041200
     38 H8          -4.3890    -1.0050     0.0380 hc         1 D9P       0.041200
     39 H9          -5.6950     1.0280     0.6530 hc         1 D9P       0.053700
     40 H10         -5.6590     1.5630    -1.0180 hc         1 D9P       0.053700
     41 H11         -6.9710    -0.3590    -1.7500 h1         1 D9P       0.065700
     42 H12         -9.0660     0.2830    -0.9920 h1         1 D9P       0.043700
     43 H13         -7.4780     2.6020     0.2140 hc         1 D9P       0.045700
     44 H14         -8.0010     2.4750    -1.4710 hc         1 D9P       0.045700
     45 H15         -9.1960     2.5940    -0.1870 hc         1 D9P       0.045700
     46 H16         -9.3620     0.4050     1.4860 hn         1 D9P       0.319500
     47 H17         -6.4180    -1.9830     0.1950 hn         1 D9P       0.326500
     48 H18          2.3080    -2.2070    -0.7680 ha         1 D9P       0.159000
     49 H19          4.3740    -3.4190    -0.5610 ha         1 D9P       0.135000
     50 H20          6.8100    -3.4620    -0.1520 ha         1 D9P       0.134000
     51 H21          8.8930    -2.2860     0.4520 ha         1 D9P       0.134000
     52 H22          8.8640     0.1400     0.9000 ha         1 D9P       0.133000
     53 H23          7.6450     2.2650     1.0740 ha         1 D9P       0.134000
     54 H24          5.5470     3.5200     0.9070 ha         1 D9P       0.134000
     55 H25          3.1420     3.5810     0.4630 ha         1 D9P       0.136000
     56 H26          1.0830     2.4710    -0.1680 ha         1 D9P       0.130000
@<TRIPOS>BOND
     1     1     2 2   
     2     2     3 1   
     3     2    15 1   
     4     3     4 1   
     5     3    31 1   
     6     3    32 1   
     7     4     5 1   
     8     4    33 1   
     9     4    34 1   
    10     5     6 1   
    11     5    35 1   
    12     5    36 1   
    13     6     7 1   
    14     6    37 1   
    15     6    38 1   
    16     7     8 1   
    17     7    39 1   
    18     7    40 1   
    19     8     9 1   
    20     8    12 1   
    21     8    41 1   
    22     9    10 1   
    23     9    11 1   
    24     9    42 1   
    25    10    43 1   
    26    10    44 1   
    27    10    45 1   
    28    11    13 1   
    29    11    46 1   
    30    12    13 1   
    31    12    47 1   
    32    13    14 2   
    33    15    16 ar  
    34    15    30 ar  
    35    16    17 ar  
    36    16    18 ar  
    37    17    21 ar  
    38    17    28 ar  
    39    18    19 ar  
    40    18    48 1   
    41    19    20 ar  
    42    19    49 1   
    43    20    21 ar  
    44    20    22 ar  
    45    21    25 ar  
    46    22    23 ar  
    47    22    50 1   
    48    23    24 ar  
    49    23    51 1   
    50    24    25 ar  
    51    24    52 1   
    52    25    26 ar  
    53    26    27 ar  
    54    26    53 1   
    55    27    28 ar  
    56    27    54 1   
    57    28    29 ar  
    58    29    30 ar  
    59    29    55 1   
    60    30    56 1   
@<TRIPOS>SUBSTRUCTURE
     1 D9P         1 TEMP              0 ****  ****    0 ROOT
