@<TRIPOS>MOLECULE
D9P
   56    60     1     0     0
SMALL
No Charge or Current Charge


@<TRIPOS>ATOM
      1 O11          1.1700     1.0430    -3.6890 o          1 D9P      -0.526100
      2 C11          0.9360     1.4820    -2.5690 c          1 D9P       0.584700
      3 C10         -0.4750     1.9480    -2.1860 c3         1 D9P      -0.175400
      4 C9          -1.3360     0.7580    -1.7010 c3         1 D9P      -0.068400
      5 C8          -2.7610     1.1780    -1.2800 c3         1 D9P      -0.076400
      6 C7          -3.6210    -0.0100    -0.7940 c3         1 D9P      -0.075400
      7 C2          -5.0480     0.4120    -0.3710 c3         1 D9P      -0.102400
      8 C4          -5.9550    -0.7650     0.0790 c5         1 D9P       0.097700
      9 C5          -7.4060    -0.3690     0.5780 c5         1 D9P       0.086700
     10 C6          -7.9940     0.9600     0.0540 c3         1 D9P      -0.094100
     11 N1          -7.2280    -0.3850     2.0260 ns         1 D9P      -0.493900
     12 N2          -5.4270    -1.4040     1.2830 ns         1 D9P      -0.504900
     13 C3          -6.1180    -1.0620     2.3950 c          1 D9P       0.577000
     14 O3          -5.7980    -1.3290     3.5370 o          1 D9P      -0.576000
     15 C1           2.0200     1.5940    -1.5320 ca         1 D9P      -0.161600
     16 C16          2.7230     0.4580    -1.0520 ca         1 D9P       0.031000
     17 C15          3.7430     0.6260    -0.0830 ca         1 D9P      -0.031000
     18 C17          2.4190    -0.8480    -1.5040 ca         1 D9P      -0.098000
     19 C18          3.1260    -1.9590    -1.0130 ca         1 D9P      -0.089000
     20 C19          4.1430    -1.7880    -0.0610 ca         1 D9P      -0.038000
     21 C20          4.4520    -0.4940     0.4080 ca         1 D9P      -0.013000
     22 C24          4.8510    -2.9020     0.4290 ca         1 D9P      -0.085000
     23 C25          5.8650    -2.7270     1.3850 ca         1 D9P      -0.109000
     24 C26          6.1750    -1.4400     1.8570 ca         1 D9P      -0.088000
     25 C21          5.4710    -0.3220     1.3720 ca         1 D9P      -0.041000
     26 C22          5.7780     0.9660     1.8450 ca         1 D9P      -0.080000
     27 C23          5.0720     2.0800     1.3630 ca         1 D9P      -0.109000
     28 C14          4.0570     1.9140     0.4030 ca         1 D9P      -0.005000
     29 C13          3.3520     3.0320    -0.0720 ca         1 D9P      -0.115000
     30 C12          2.3410     2.8720    -1.0300 ca         1 D9P      -0.076000
     31 H1          -0.4120     2.6600    -1.3550 hc         1 D9P       0.061700
     32 H2          -0.9570     2.4100    -3.0560 hc         1 D9P       0.061700
     33 H3          -1.4020     0.0100    -2.5010 hc         1 D9P       0.053700
     34 H4          -0.8370     0.2740    -0.8520 hc         1 D9P       0.053700
     35 H5          -2.6950     1.9260    -0.4800 hc         1 D9P       0.037700
     36 H6          -3.2600     1.6610    -2.1300 hc         1 D9P       0.037700
     37 H7          -3.6890    -0.7570    -1.5950 hc         1 D9P       0.041200
     38 H8          -3.1160    -0.4920     0.0520 hc         1 D9P       0.041200
     39 H9          -4.9720     1.1510     0.4360 hc         1 D9P       0.053700
     40 H10         -5.5140     0.9240    -1.2210 hc         1 D9P       0.053700
     41 H11         -6.0280    -1.4760    -0.7560 h1         1 D9P       0.065700
     42 H12         -8.1060    -1.1660     0.2930 h1         1 D9P       0.043700
     43 H13         -7.3900     1.8210     0.3610 hc         1 D9P       0.045700
     44 H14         -8.0540     0.9580    -1.0410 hc         1 D9P       0.045700
     45 H15         -9.0080     1.1140     0.4400 hc         1 D9P       0.045700
     46 H16         -7.8930    -0.0840     2.7280 hn         1 D9P       0.319500
     47 H17         -4.5420    -1.8870     1.3750 hn         1 D9P       0.326500
     48 H18          1.6340    -1.0240    -2.2340 ha         1 D9P       0.141000
     49 H19          2.8780    -2.9540    -1.3760 ha         1 D9P       0.117000
     50 H20          4.6160    -3.9020     0.0710 ha         1 D9P       0.116000
     51 H21          6.4110    -3.5900     1.7620 ha         1 D9P       0.116000
     52 H22          6.9610    -1.3150     2.5990 ha         1 D9P       0.115000
     53 H23          6.5610     1.1060     2.5880 ha         1 D9P       0.116000
     54 H24          5.3150     3.0720     1.7380 ha         1 D9P       0.116000
     55 H25          3.5880     4.0270     0.2990 ha         1 D9P       0.118000
     56 H26          1.8120     3.7520    -1.3940 ha         1 D9P       0.112000
@<TRIPOS>BOND
     1     1     2 2   
     2     2     3 1   
     3     2    15 1   
     4     3     4 1   
     5     3    31 1   
     6     3    32 1   
     7     4     5 1   
     8     4    33 1   
     9     4    34 1   
    10     5     6 1   
    11     5    35 1   
    12     5    36 1   
    13     6     7 1   
    14     6    37 1   
    15     6    38 1   
    16     7     8 1   
    17     7    39 1   
    18     7    40 1   
    19     8     9 1   
    20     8    12 1   
    21     8    41 1   
    22     9    10 1   
    23     9    11 1   
    24     9    42 1   
    25    10    43 1   
    26    10    44 1   
    27    10    45 1   
    28    11    13 1   
    29    11    46 1   
    30    12    13 1   
    31    12    47 1   
    32    13    14 2   
    33    15    16 ar  
    34    15    30 ar  
    35    16    17 ar  
    36    16    18 ar  
    37    17    21 ar  
    38    17    28 ar  
    39    18    19 ar  
    40    18    48 1   
    41    19    20 ar  
    42    19    49 1   
    43    20    21 ar  
    44    20    22 ar  
    45    21    25 ar  
    46    22    23 ar  
    47    22    50 1   
    48    23    24 ar  
    49    23    51 1   
    50    24    25 ar  
    51    24    52 1   
    52    25    26 ar  
    53    26    27 ar  
    54    26    53 1   
    55    27    28 ar  
    56    27    54 1   
    57    28    29 ar  
    58    29    30 ar  
    59    29    55 1   
    60    30    56 1   
@<TRIPOS>SUBSTRUCTURE
     1 D9P         1 TEMP              0 ****  ****    0 ROOT
