@<TRIPOS>MOLECULE
D9Q
   37    38     1     0     0
SMALL
abcg2


@<TRIPOS>ATOM
      1 C13          2.7790     0.6230    -0.0970 c3         1 D9Q       0.155800
      2 C15          4.6310    -0.7050     0.7590 c5         1 D9Q       0.156300
      3 C17          6.4460     0.5690    -0.2470 c5         1 D9Q      -0.079400
      4 C01         -5.4410    -1.3630    -0.0500 c3         1 D9Q       0.071300
      5 C03         -3.0500    -0.9480     0.0710 cc         1 D9Q       0.038600
      6 C04         -1.9460    -0.1480     0.0920 cd         1 D9Q      -0.291200
      7 C05         -2.1650     1.2540     0.0730 cd         1 D9Q      -0.067000
      8 C06         -3.4210     1.7600     0.0230 cc         1 D9Q      -0.330200
      9 C07         -4.5830     0.9130    -0.0370 c          1 D9Q       0.553200
     10 C09         -0.6160    -0.8070     0.1580 c          1 D9Q       0.635300
     11 C12          1.7980    -0.5310    -0.2260 c3         1 D9Q       0.095000
     12 C16          6.1540    -0.7020     0.5760 c5         1 D9Q      -0.079400
     13 C18          5.0960     1.2740    -0.3190 c5         1 D9Q       0.156300
     14 N02         -4.3010    -0.4590    -0.0010 n          1 D9Q      -0.270000
     15 N11          0.4360    -0.0420    -0.2060 ns         1 D9Q      -0.503900
     16 N14          4.1380     0.1830    -0.2830 n3         1 D9Q      -0.715600
     17 O08         -5.7390     1.2960    -0.0700 o          1 D9Q      -0.540000
     18 O10         -0.4980    -1.9550     0.5510 o          1 D9Q      -0.611100
     19 H1           2.5560     1.3710    -0.8670 h1         1 D9Q       0.032700
     20 H2           2.6310     1.1190     0.8790 h1         1 D9Q       0.032700
     21 H3           4.2040    -1.7050     0.6680 h1         1 D9Q       0.036950
     22 H4           4.3670    -0.3290     1.7620 h1         1 D9Q       0.036950
     23 H5           7.2080     1.2000     0.2070 hc         1 D9Q       0.047700
     24 H6           6.7930     0.3090    -1.2470 hc         1 D9Q       0.047700
     25 H7          -6.0110    -1.2070    -0.9620 h1         1 D9Q       0.058700
     26 H8          -5.0810    -2.3860    -0.0290 h1         1 D9Q       0.058700
     27 H9          -6.0960    -1.2000     0.8020 h1         1 D9Q       0.058700
     28 H10         -2.9550    -2.0240     0.0980 h4         1 D9Q       0.222000
     29 H11         -1.3320     1.9440     0.1330 ha         1 D9Q       0.184000
     30 H12         -3.5910     2.8280     0.0330 ha         1 D9Q       0.211000
     31 H13          2.0050    -1.0750    -1.1530 h1         1 D9Q       0.060700
     32 H14          1.9150    -1.2360     0.5950 h1         1 D9Q       0.060700
     33 H15          6.6600    -0.6930     1.5400 hc         1 D9Q       0.047700
     34 H16          6.4910    -1.5950     0.0500 hc         1 D9Q       0.047700
     35 H17          4.9740     1.9500     0.5450 h1         1 D9Q       0.036950
     36 H18          4.9730     1.8770    -1.2220 h1         1 D9Q       0.036950
     37 H19          0.2550     0.8020    -0.7230 hn         1 D9Q       0.308500
@<TRIPOS>BOND
     1     1    11 1   
     2     1    16 1   
     3     1    19 1   
     4     1    20 1   
     5     2    12 1   
     6     2    16 1   
     7     2    21 1   
     8     2    22 1   
     9     3    12 1   
    10     3    13 1   
    11     3    23 1   
    12     3    24 1   
    13     4    14 1   
    14     4    25 1   
    15     4    26 1   
    16     4    27 1   
    17     5     6 2   
    18     5    14 1   
    19     5    28 1   
    20     6     7 1   
    21     6    10 1   
    22     7     8 2   
    23     7    29 1   
    24     8     9 1   
    25     8    30 1   
    26     9    14 1   
    27     9    17 2   
    28    10    15 1   
    29    10    18 2   
    30    11    15 1   
    31    11    31 1   
    32    11    32 1   
    33    12    33 1   
    34    12    34 1   
    35    13    16 1   
    36    13    35 1   
    37    13    36 1   
    38    15    37 1   
@<TRIPOS>SUBSTRUCTURE
     1 D9Q         1 TEMP              0 ****  ****    0 ROOT
