@<TRIPOS>MOLECULE
D9Q
   37    38     1     0     0
SMALL
No Charge or Current Charge


@<TRIPOS>ATOM
      1 C13          2.8150     0.6450    -0.1140 c3         1 D9Q       0.155800
      2 C15          4.7270    -0.6540     0.8680 c5         1 D9Q       0.156300
      3 C17          6.5540     0.5850    -0.2080 c5         1 D9Q      -0.079400
      4 C01         -5.5930    -1.3790     0.1630 c3         1 D9Q       0.071300
      5 C03         -3.1260    -0.9970     0.0200 cc         1 D9Q       0.038600
      6 C04         -1.9920    -0.2060    -0.0900 cd         1 D9Q      -0.291200
      7 C05         -2.1780     1.2270    -0.1820 cd         1 D9Q      -0.067000
      8 C06         -3.4620     1.7290    -0.1570 cc         1 D9Q      -0.330200
      9 C07         -4.6670     0.9050    -0.0420 c          1 D9Q       0.553200
     10 C09         -0.6730    -0.9030    -0.1030 c          1 D9Q       0.635300
     11 C12          1.8060    -0.5210    -0.2460 c3         1 D9Q       0.095000
     12 C16          6.2410    -0.7530     0.5340 c5         1 D9Q      -0.079400
     13 C18          5.2070     1.3520    -0.1690 c5         1 D9Q       0.156300
     14 N02         -4.4230    -0.4780     0.0440 n          1 D9Q      -0.270000
     15 N11          0.4100    -0.0660    -0.2150 ns         1 D9Q      -0.503900
     16 N14          4.2370     0.2390    -0.2050 n3         1 D9Q      -0.715600
     17 O08         -5.7910     1.3880    -0.0220 o          1 D9Q      -0.540000
     18 O10         -0.5480    -2.1160    -0.0230 o          1 D9Q      -0.611100
     19 H1           2.5970     1.3690    -0.9120 h1         1 D9Q       0.032700
     20 H2           2.6340     1.1560     0.8420 h1         1 D9Q       0.032700
     21 H3           4.2420    -1.6390     0.8590 h1         1 D9Q       0.036950
     22 H4           4.5710    -0.2050     1.8600 h1         1 D9Q       0.036950
     23 H5           7.3590     1.1530     0.2700 hc         1 D9Q       0.047700
     24 H6           6.8630     0.3930    -1.2420 hc         1 D9Q       0.047700
     25 H7          -6.2450    -1.2560    -0.7110 h1         1 D9Q       0.058700
     26 H8          -5.2770    -2.4280     0.2220 h1         1 D9Q       0.058700
     27 H9          -6.1600    -1.1310     1.0700 h1         1 D9Q       0.058700
     28 H10         -3.1130    -2.0820     0.0960 h4         1 D9Q       0.222000
     29 H11         -1.3410     1.9160    -0.2700 ha         1 D9Q       0.184000
     30 H12         -3.6490     2.7950    -0.2230 ha         1 D9Q       0.211000
     31 H13          1.9830    -1.0470    -1.1930 h1         1 D9Q       0.060700
     32 H14          1.9620    -1.2320     0.5750 h1         1 D9Q       0.060700
     33 H15          6.8440    -0.8810     1.4390 hc         1 D9Q       0.047700
     34 H16          6.4440    -1.6130    -0.1140 hc         1 D9Q       0.047700
     35 H17          5.1090     1.9380     0.7570 h1         1 D9Q       0.036950
     36 H18          5.0960     2.0370    -1.0210 h1         1 D9Q       0.036950
     37 H19          0.2210     0.9240    -0.2800 hn         1 D9Q       0.308500
@<TRIPOS>BOND
     1     1    11 1   
     2     1    16 1   
     3     1    19 1   
     4     1    20 1   
     5     2    12 1   
     6     2    16 1   
     7     2    21 1   
     8     2    22 1   
     9     3    12 1   
    10     3    13 1   
    11     3    23 1   
    12     3    24 1   
    13     4    14 1   
    14     4    25 1   
    15     4    26 1   
    16     4    27 1   
    17     5     6 2   
    18     5    14 1   
    19     5    28 1   
    20     6     7 1   
    21     6    10 1   
    22     7     8 2   
    23     7    29 1   
    24     8     9 1   
    25     8    30 1   
    26     9    14 1   
    27     9    17 2   
    28    10    15 1   
    29    10    18 2   
    30    11    15 1   
    31    11    31 1   
    32    11    32 1   
    33    12    33 1   
    34    12    34 1   
    35    13    16 1   
    36    13    35 1   
    37    13    36 1   
    38    15    37 1   
@<TRIPOS>SUBSTRUCTURE
     1 D9Q         1 TEMP              0 ****  ****    0 ROOT
