@<TRIPOS>MOLECULE
D9S
   60    63     1     0     0
SMALL
No Charge or Current Charge


@<TRIPOS>ATOM
      1 C4         -13.7880     4.0590     1.2410 ca         1 D9S      -0.113000
      2 C5         -13.4890     5.3950     1.5550 ca         1 D9S      -0.105000
      3 C6         -12.2420     5.9370     1.1980 ca         1 D9S      -0.113000
      4 N1          -7.7820    -0.1400     3.9400 nc         1 D9S      -0.372300
      5 C7         -11.2950     5.1430     0.5270 ca         1 D9S      -0.097000
      6 C8          -9.3800     2.2320     1.5520 c3         1 D9S       0.121500
      7 N2         -12.2380    -2.8160     7.1480 n7         1 D9S      -0.843400
      8 C9          -9.0660     1.1110     2.5160 cc         1 D9S       0.185300
      9 C10         -9.8320     0.1020     3.0070 cd         1 D9S      -0.232000
     10 C11         -9.0070    -0.6330     3.8730 cd         1 D9S       0.270300
     11 C12         -9.4020    -1.8530     4.6660 c3         1 D9S      -0.110700
     12 N3          -9.2750     0.4370     9.7520 ns         1 D9S      -0.472400
     13 C13        -10.6450    -1.6600     5.5920 c6         1 D9S      -0.093700
     14 C14        -10.9940    -2.9700     6.3540 c6         1 D9S       0.150800
     15 C15        -12.1690    -1.7010     8.1220 c6         1 D9S       0.146800
     16 N4          -9.4020     0.7870    12.0350 nc         1 D9S      -0.710000
     17 O1          -8.8780     1.8370     7.9910 o          1 D9S      -0.573100
     18 C19         -9.1210     0.7200     8.4180 c          1 D9S       0.605100
     19 C20         -9.2280     1.2830    10.8230 cd         1 D9S       0.534300
     20 S           -8.9590     3.0310    10.7450 ss         1 D9S       0.054600
     21 C22         -9.0960     3.0470    12.4920 cd         1 D9S      -0.316000
     22 C21         -9.3260     1.7850    12.9750 cc         1 D9S       0.302900
     23 C17        -10.5310    -0.4480     6.5780 c6         1 D9S      -0.041700
     24 C16        -11.8480    -0.3650     7.4070 c6         1 D9S      -0.116400
     25 O           -7.8070     1.0050     3.0570 os         1 D9S      -0.072700
     26 N          -10.0660     1.7990     0.2980 n3         1 D9S      -0.720600
     27 C           -9.2590     0.8480    -0.5040 c3         1 D9S       0.148100
     28 C2         -11.5890     3.8020     0.2080 ca         1 D9S      -0.096300
     29 C3         -12.8410     3.2650     0.5690 ca         1 D9S      -0.097000
     30 H1         -14.7520     3.6370     1.5170 ha         1 D9S       0.113000
     31 H2         -14.2210     6.0090     2.0750 ha         1 D9S       0.113000
     32 H3         -12.0090     6.9710     1.4420 ha         1 D9S       0.113000
     33 H4         -10.3320     5.5710     0.2570 ha         1 D9S       0.116000
     34 H5          -8.4440     2.7540     1.3090 h1         1 D9S       0.065700
     35 H6         -10.0060     2.9490     2.1000 h1         1 D9S       0.065700
     36 H7         -13.0090    -2.6220     6.4970 hn         1 D9S       0.404000
     37 H9         -10.8720    -0.0900     2.7720 ha         1 D9S       0.158000
     38 H10         -9.6090    -2.6650     3.9580 hc         1 D9S       0.061700
     39 H11         -8.5480    -2.2050     5.2580 hc         1 D9S       0.061700
     40 H12         -9.4510    -0.5340     9.9620 hn         1 D9S       0.339500
     41 H13        -11.4810    -1.4500     4.9090 hc         1 D9S       0.052700
     42 H14        -11.1270    -3.7900     5.6320 h1         1 D9S       0.052200
     43 H15        -10.1630    -3.2530     7.0170 h1         1 D9S       0.052200
     44 H16        -13.1300    -1.6130     8.6500 h1         1 D9S       0.052700
     45 H17        -11.4000    -1.9160     8.8790 h1         1 D9S       0.052700
     46 H18         -9.0020     3.9690    13.0520 h4         1 D9S       0.158000
     47 H19         -9.4510     1.5180    14.0170 h4         1 D9S       0.038100
     48 H20         -9.2390    -1.4110     8.0780 hc         1 D9S       0.073200
     49 H21         -8.3590    -0.4820     6.8490 hc         1 D9S       0.073200
     50 H22        -10.4520     0.4770     5.9870 hc         1 D9S       0.076700
     51 H23        -11.8020     0.4500     8.1410 hc         1 D9S       0.051700
     52 H24        -12.6810    -0.1100     6.7370 hc         1 D9S       0.051700
     53 H26         -8.9940    -0.0400     0.0840 h1         1 D9S       0.036700
     54 H27         -9.8210     0.5080    -1.3840 h1         1 D9S       0.036700
     55 H28         -8.3300     1.3200    -0.8510 h1         1 D9S       0.036700
     56 H29        -11.0400     2.5530    -1.4320 h1         1 D9S       0.042700
     57 H30         -9.7210     3.5620    -0.8400 h1         1 D9S       0.042700
     58 H31        -13.0760     2.2300     0.3320 ha         1 D9S       0.116000
     59 C1         -10.5640     2.9340    -0.5180 c3         1 D9S       0.215100
     60 C18         -9.2500    -0.4900     7.4850 c3         1 D9S      -0.150400
@<TRIPOS>BOND
     1     1     2 ar  
     2     1    29 ar  
     3     1    30 1   
     4     2     3 ar  
     5     2    31 1   
     6     3     5 ar  
     7     3    32 1   
     8     4    10 2   
     9     4    25 1   
    10     5    28 ar  
    11     5    33 1   
    12     6     8 1   
    13     6    26 1   
    14     6    34 1   
    15     6    35 1   
    16     7    14 1   
    17     7    15 1   
    18     7    36 1   
    19     8     9 2   
    20     8    25 1   
    21     9    10 1   
    22     9    37 1   
    23    10    11 1   
    24    11    13 1   
    25    11    38 1   
    26    11    39 1   
    27    12    18 1   
    28    12    19 1   
    29    12    40 1   
    30    13    14 1   
    31    13    23 1   
    32    13    41 1   
    33    14    42 1   
    34    14    43 1   
    35    15    24 1   
    36    15    44 1   
    37    15    45 1   
    38    16    19 2   
    39    16    22 1   
    40    17    18 2   
    41    18    60 1   
    42    19    20 1   
    43    20    21 1   
    44    21    22 2   
    45    21    46 1   
    46    22    47 1   
    47    23    24 1   
    48    23    50 1   
    49    23    60 1   
    50    24    51 1   
    51    24    52 1   
    52    26    27 1   
    53    26    59 1   
    54    27    53 1   
    55    27    54 1   
    56    27    55 1   
    57    28    29 ar  
    58    28    59 1   
    59    29    58 1   
    60    48    60 1   
    61    49    60 1   
    62    56    59 1   
    63    57    59 1   
@<TRIPOS>SUBSTRUCTURE
     1 D9S         1 TEMP              0 ****  ****    0 ROOT
