@<TRIPOS>MOLECULE
D9S
   60    63     1     0     0
SMALL
abcg2


@<TRIPOS>ATOM
      1 C4         -13.5280     3.5330     1.6060 ca         1 D9S      -0.113000
      2 C5         -13.6020     4.9160     1.7360 ca         1 D9S      -0.105000
      3 C6         -12.5660     5.7060     1.2600 ca         1 D9S      -0.113000
      4 N1          -8.0730    -0.0570     4.3200 nc         1 D9S      -0.372300
      5 C7         -11.4610     5.1150     0.6570 ca         1 D9S      -0.097000
      6 C8          -9.0880     2.3070     1.7980 c3         1 D9S       0.121500
      7 N2         -12.6010    -2.8620     6.9290 n7         1 D9S      -0.843400
      8 C9          -9.0140     1.1420     2.7220 cc         1 D9S       0.185300
      9 C10         -9.8510     0.1060     2.9640 cd         1 D9S      -0.232000
     10 C11         -9.1990    -0.6240     3.9920 cd         1 D9S       0.270300
     11 C12         -9.6670    -1.8580     4.6820 c3         1 D9S      -0.110700
     12 N3          -9.1790     0.3910     9.6010 ns         1 D9S      -0.472400
     13 C13        -10.9500    -1.6420     5.4900 c6         1 D9S      -0.093700
     14 C14        -11.3670    -2.9500     6.1710 c6         1 D9S       0.150800
     15 C15        -12.5780    -1.7640     7.8830 c6         1 D9S       0.146800
     16 N4          -8.5560     1.0510    11.7460 nc         1 D9S      -0.710000
     17 O1          -9.7140     1.7850     7.9260 o          1 D9S      -0.573100
     18 C19         -9.5460     0.6430     8.3130 c          1 D9S       0.605100
     19 C20         -8.9330     1.3570    10.5470 cd         1 D9S       0.534300
     20 S           -9.1000     3.0500    10.2310 ss         1 D9S       0.054600
     21 C22         -8.6190     3.3520    11.8590 cd         1 D9S      -0.316000
     22 C21         -8.3760     2.1810    12.4940 cc         1 D9S       0.302900
     23 C17        -10.8870    -0.4780     6.4920 c6         1 D9S      -0.041700
     24 C16        -12.2160    -0.4200     7.2580 c6         1 D9S      -0.116400
     25 O           -7.9530     1.0480     3.5260 os         1 D9S      -0.072700
     26 N           -9.7050     1.9360     0.5430 n3         1 D9S      -0.720600
     27 C           -8.8160     1.1370    -0.2760 c3         1 D9S       0.148100
     28 C2         -11.3810     3.7340     0.5160 ca         1 D9S      -0.096300
     29 C3         -12.4260     2.9480     1.0000 ca         1 D9S      -0.097000
     30 H1         -14.3320     2.9120     1.9780 ha         1 D9S       0.113000
     31 H2         -14.4620     5.3720     2.2100 ha         1 D9S       0.113000
     32 H3         -12.6110     6.7830     1.3640 ha         1 D9S       0.113000
     33 H4         -10.6490     5.7360     0.2950 ha         1 D9S       0.116000
     34 H5          -8.0830     2.7420     1.6680 h1         1 D9S       0.065700
     35 H6          -9.6970     3.0790     2.2770 h1         1 D9S       0.065700
     36 H7         -13.3710    -2.7200     6.2850 hn         1 D9S       0.404000
     37 H9         -10.7910    -0.1140     2.4880 ha         1 D9S       0.158000
     38 H10         -9.8580    -2.6290     3.9310 hc         1 D9S       0.061700
     39 H11         -8.8640    -2.2430     5.3160 hc         1 D9S       0.061700
     40 H12         -9.0330    -0.5610     9.9050 hn         1 D9S       0.339500
     41 H13        -11.7470    -1.3920     4.7770 hc         1 D9S       0.052700
     42 H14        -11.4800    -3.7310     5.4140 h1         1 D9S       0.052200
     43 H15        -10.5700    -3.2930     6.8410 h1         1 D9S       0.052200
     44 H16        -13.5550    -1.7000     8.3660 h1         1 D9S       0.052700
     45 H17        -11.8640    -2.0160     8.6740 h1         1 D9S       0.052700
     46 H18         -8.5410     4.3540    12.2460 h4         1 D9S       0.158000
     47 H19         -8.0590     2.0900    13.5220 h4         1 D9S       0.038100
     48 H20         -9.7000    -1.4800     8.0360 hc         1 D9S       0.073200
     49 H21         -8.7570    -0.6140     6.8510 hc         1 D9S       0.073200
     50 H22        -10.7820     0.4500     5.9230 hc         1 D9S       0.076700
     51 H23        -12.1910     0.3570     8.0270 hc         1 D9S       0.051700
     52 H24        -13.0080    -0.1280     6.5610 hc         1 D9S       0.051700
     53 H26         -8.5360     0.2240     0.2480 h1         1 D9S       0.036700
     54 H27         -9.3250     0.8460    -1.1950 h1         1 D9S       0.036700
     55 H28         -7.8910     1.6650    -0.5510 h1         1 D9S       0.036700
     56 H29        -10.5130     2.7580    -1.1650 h1         1 D9S       0.042700
     57 H30         -9.4200     3.8550    -0.3390 h1         1 D9S       0.042700
     58 H31        -12.3660     1.8700     0.9070 ha         1 D9S       0.116000
     59 C1         -10.2020     3.0970    -0.1730 c3         1 D9S       0.215100
     60 C18         -9.6820    -0.5710     7.4330 c3         1 D9S      -0.150400
@<TRIPOS>BOND
     1     1     2 ar  
     2     1    29 ar  
     3     1    30 1   
     4     2     3 ar  
     5     2    31 1   
     6     3     5 ar  
     7     3    32 1   
     8     4    10 2   
     9     4    25 1   
    10     5    28 ar  
    11     5    33 1   
    12     6     8 1   
    13     6    26 1   
    14     6    34 1   
    15     6    35 1   
    16     7    14 1   
    17     7    15 1   
    18     7    36 1   
    19     8     9 2   
    20     8    25 1   
    21     9    10 1   
    22     9    37 1   
    23    10    11 1   
    24    11    13 1   
    25    11    38 1   
    26    11    39 1   
    27    12    18 1   
    28    12    19 1   
    29    12    40 1   
    30    13    14 1   
    31    13    23 1   
    32    13    41 1   
    33    14    42 1   
    34    14    43 1   
    35    15    24 1   
    36    15    44 1   
    37    15    45 1   
    38    16    19 2   
    39    16    22 1   
    40    17    18 2   
    41    18    60 1   
    42    19    20 1   
    43    20    21 1   
    44    21    22 2   
    45    21    46 1   
    46    22    47 1   
    47    23    24 1   
    48    23    50 1   
    49    23    60 1   
    50    24    51 1   
    51    24    52 1   
    52    26    27 1   
    53    26    59 1   
    54    27    53 1   
    55    27    54 1   
    56    27    55 1   
    57    28    29 ar  
    58    28    59 1   
    59    29    58 1   
    60    48    60 1   
    61    49    60 1   
    62    56    59 1   
    63    57    59 1   
@<TRIPOS>SUBSTRUCTURE
     1 D9S         1 TEMP              0 ****  ****    0 ROOT
