@<TRIPOS>MOLECULE
D9T
   40    41     1     0     0
SMALL
No Charge or Current Charge


@<TRIPOS>ATOM
      1 C13         -2.8940     0.4660     0.0950 c6         1 D9T       0.160200
      2 C15         -2.9270    -1.0680     0.3960 c6         1 D9T      -0.087900
      3 C17         -5.4090    -1.2070    -0.2120 c6         1 D9T      -0.076400
      4 C01          5.0990     0.3190    -1.4080 c3         1 D9T       0.071300
      5 C03          2.7770     0.5610    -0.5120 cc         1 D9T       0.037600
      6 C04          1.7530     0.2950     0.3860 cd         1 D9T      -0.291200
      7 C05          2.0340    -0.6200     1.4720 cd         1 D9T      -0.070000
      8 C06          3.2920    -1.1760     1.5590 cc         1 D9T      -0.327200
      9 C07          4.3800    -0.9030     0.6180 c          1 D9T       0.550200
     10 C09          0.4480     0.9760     0.1530 c          1 D9T       0.637300
     11 C12         -1.8990     1.2010     1.0680 c3         1 D9T       0.106000
     12 C16         -4.0080    -1.8270    -0.4230 c6         1 D9T      -0.075400
     13 C18         -5.4070     0.3030    -0.5500 c6         1 D9T      -0.075400
     14 C19         -4.3260     1.0610     0.2700 c6         1 D9T      -0.087900
     15 N02          4.0490    -0.0080    -0.4150 n          1 D9T      -0.265000
     16 N11         -0.5230     0.6720     1.0750 ns         1 D9T      -0.507900
     17 N14         -2.4470     0.6790    -1.2990 n8         1 D9T      -0.984200
     18 O08          5.4860    -1.4170     0.7290 o          1 D9T      -0.546000
     19 O10          0.2420     1.7400    -0.7780 o          1 D9T      -0.604100
     20 H1          -1.9450    -1.5190     0.2010 hc         1 D9T       0.043700
     21 H2          -3.1220    -1.2230     1.4660 hc         1 D9T       0.043700
     22 H3          -6.1470    -1.7280    -0.8370 hc         1 D9T       0.040700
     23 H4          -5.7250    -1.3520     0.8310 hc         1 D9T       0.040700
     24 H5           5.9590     0.7720    -0.9010 h1         1 D9T       0.059033
     25 H6           5.4240    -0.5980    -1.9170 h1         1 D9T       0.059033
     26 H7           4.7220     1.0230    -2.1600 h1         1 D9T       0.059033
     27 H8           2.6860     1.2290    -1.3650 h4         1 D9T       0.222000
     28 H9           1.2860    -0.8820     2.2180 ha         1 D9T       0.181000
     29 H10          3.5470    -1.8660     2.3560 ha         1 D9T       0.211000
     30 H11         -1.8690     2.2690     0.8130 h1         1 D9T       0.063700
     31 H12         -2.2930     1.1240     2.0900 h1         1 D9T       0.063700
     32 H13         -3.7530    -1.8150    -1.4920 hc         1 D9T       0.040450
     33 H14         -4.0230    -2.8840    -0.1240 hc         1 D9T       0.040450
     34 H15         -5.2330     0.4430    -1.6260 hc         1 D9T       0.040450
     35 H16         -6.3970     0.7310    -0.3410 hc         1 D9T       0.040450
     36 H17         -4.6060     1.0310     1.3320 hc         1 D9T       0.043700
     37 H18         -4.3310     2.1230    -0.0120 hc         1 D9T       0.043700
     38 H19         -0.2640     0.0300     1.8110 hn         1 D9T       0.308500
     39 H20         -1.5170     1.1200    -1.2590 hn         1 D9T       0.395000
     40 H21         -2.2610    -0.2370    -1.7160 hn         1 D9T       0.395000
@<TRIPOS>BOND
     1     1     2 1   
     2     1    11 1   
     3     1    14 1   
     4     1    17 1   
     5     2    12 1   
     6     2    20 1   
     7     2    21 1   
     8     3    12 1   
     9     3    13 1   
    10     3    22 1   
    11     3    23 1   
    12     4    15 1   
    13     4    24 1   
    14     4    25 1   
    15     4    26 1   
    16     5     6 2   
    17     5    15 1   
    18     5    27 1   
    19     6     7 1   
    20     6    10 1   
    21     7     8 2   
    22     7    28 1   
    23     8     9 1   
    24     8    29 1   
    25     9    15 1   
    26     9    18 2   
    27    10    16 1   
    28    10    19 2   
    29    11    16 1   
    30    11    30 1   
    31    11    31 1   
    32    12    32 1   
    33    12    33 1   
    34    13    14 1   
    35    13    34 1   
    36    13    35 1   
    37    14    36 1   
    38    14    37 1   
    39    16    38 1   
    40    17    39 1   
    41    17    40 1   
@<TRIPOS>SUBSTRUCTURE
     1 D9T         1 TEMP              0 ****  ****    0 ROOT
