@<TRIPOS>MOLECULE
D9T
   40    41     1     0     0
SMALL
abcg2


@<TRIPOS>ATOM
      1 C13         -2.8590     0.2810    -0.0570 c6         1 D9T       0.160200
      2 C15         -3.0610    -0.9640     0.8280 c6         1 D9T      -0.087900
      3 C17         -5.5300    -0.9990     0.3350 c6         1 D9T      -0.076400
      4 C01          5.4310     1.0010    -0.3850 c3         1 D9T       0.071300
      5 C03          3.0120     0.9160    -0.2050 cc         1 D9T       0.037600
      6 C04          1.8220     0.2950     0.0470 cd         1 D9T      -0.291200
      7 C05          1.8680    -1.0850     0.3650 cd         1 D9T      -0.070000
      8 C06          3.0500    -1.7460     0.4190 cc         1 D9T      -0.327200
      9 C07          4.3010    -1.0830     0.1710 c          1 D9T       0.550200
     10 C09          0.5760     1.0950    -0.0760 c          1 D9T       0.637300
     11 C12         -1.8050     1.2060     0.5650 c3         1 D9T       0.106000
     12 C16         -4.2450    -1.8180     0.3820 c6         1 D9T      -0.075400
     13 C18         -5.3650     0.2240    -0.5600 c6         1 D9T      -0.075400
     14 C19         -4.1710     1.0710    -0.1290 c6         1 D9T      -0.087900
     15 N02          4.1920     0.2760    -0.1340 n          1 D9T      -0.265000
     16 N11         -0.4850     0.6190     0.6040 ns         1 D9T      -0.507900
     17 N14         -2.4210    -0.0390    -1.4120 n8         1 D9T      -0.984200
     18 O08          5.4040    -1.6150     0.2040 o          1 D9T      -0.546000
     19 O10          0.5440     2.1140    -0.7530 o          1 D9T      -0.604100
     20 H1          -2.1490    -1.5700     0.8270 hc         1 D9T       0.043700
     21 H2          -3.2270    -0.6480     1.8640 hc         1 D9T       0.043700
     22 H3          -6.3630    -1.6140    -0.0130 hc         1 D9T       0.040700
     23 H4          -5.7830    -0.6700     1.3490 hc         1 D9T       0.040700
     24 H5           6.0930     0.9260     0.4740 h1         1 D9T       0.059033
     25 H6           5.9390     0.5970    -1.2580 h1         1 D9T       0.059033
     26 H7           5.1990     2.0460    -0.5620 h1         1 D9T       0.059033
     27 H8           3.0550     1.9640    -0.4640 h4         1 D9T       0.222000
     28 H9           0.9550    -1.6410     0.5400 ha         1 D9T       0.181000
     29 H10          3.0890    -2.8030     0.6410 ha         1 D9T       0.211000
     30 H11         -1.7490     2.1300    -0.0100 h1         1 D9T       0.063700
     31 H12         -2.1110     1.4680     1.5820 h1         1 D9T       0.063700
     32 H13         -4.0470    -2.2480    -0.6060 hc         1 D9T       0.040450
     33 H14         -4.3580    -2.6670     1.0600 hc         1 D9T       0.040450
     34 H15         -5.2550    -0.0950    -1.6020 hc         1 D9T       0.040450
     35 H16         -6.2690     0.8380    -0.5340 hc         1 D9T       0.040450
     36 H17         -4.3820     1.4900     0.8610 hc         1 D9T       0.043700
     37 H18         -4.0410     1.9180    -0.8080 hc         1 D9T       0.043700
     38 H19         -0.3310    -0.1080     1.2840 hn         1 D9T       0.308500
     39 H20         -1.5690    -0.5870    -1.3720 hn         1 D9T       0.395000
     40 H21         -3.0970    -0.6360    -1.8710 hn         1 D9T       0.395000
@<TRIPOS>BOND
     1     1     2 1   
     2     1    11 1   
     3     1    14 1   
     4     1    17 1   
     5     2    12 1   
     6     2    20 1   
     7     2    21 1   
     8     3    12 1   
     9     3    13 1   
    10     3    22 1   
    11     3    23 1   
    12     4    15 1   
    13     4    24 1   
    14     4    25 1   
    15     4    26 1   
    16     5     6 2   
    17     5    15 1   
    18     5    27 1   
    19     6     7 1   
    20     6    10 1   
    21     7     8 2   
    22     7    28 1   
    23     8     9 1   
    24     8    29 1   
    25     9    15 1   
    26     9    18 2   
    27    10    16 1   
    28    10    19 2   
    29    11    16 1   
    30    11    30 1   
    31    11    31 1   
    32    12    32 1   
    33    12    33 1   
    34    13    14 1   
    35    13    34 1   
    36    13    35 1   
    37    14    36 1   
    38    14    37 1   
    39    16    38 1   
    40    17    39 1   
    41    17    40 1   
@<TRIPOS>SUBSTRUCTURE
     1 D9T         1 TEMP              0 ****  ****    0 ROOT
