@<TRIPOS>MOLECULE
D9U
  101   102     1     0     0
SMALL
No Charge or Current Charge


@<TRIPOS>ATOM
      1 C10         -4.8730     8.3170   -22.0140 c3         1 D9U       0.095000
      2 C20         -8.4260     6.0410   -17.3940 c3         1 D9U      -0.068400
      3 C21         -9.7810     6.5680   -16.8500 c3         1 D9U      -0.095400
      4 C22         -9.7420     7.2100   -15.4480 c3         1 D9U       0.099000
      5 C24         -8.3340     6.1260   -13.6620 c          1 D9U       0.587100
      6 C26         -8.2110     4.8520   -12.7780 c3         1 D9U       0.036700
      7 C01         -3.2580     8.1370   -16.6780 ca         1 D9U      -0.097500
      8 C02         -2.3600     8.3360   -17.7390 ca         1 D9U      -0.099000
      9 C03         -1.1760     7.5710   -17.8250 ca         1 D9U      -0.104300
     10 C04         -0.1960     7.7300   -18.9860 c3         1 D9U       0.149300
     11 C06         -1.7390     7.5930   -20.9700 c          1 D9U       0.603100
     12 C08         -2.2530     8.3900   -22.1700 c3         1 D9U      -0.172400
     13 C09         -3.5780     9.1510   -21.8830 c3         1 D9U      -0.106400
     14 C12         -5.7680     7.8720   -19.6900 c          1 D9U       0.556100
     15 C14         -6.3530     6.6940   -18.8240 c3         1 D9U       0.172500
     16 C19         -7.4110     7.1520   -17.7800 c3         1 D9U      -0.080400
     17 C27         -8.8500     5.0650   -11.3820 c3         1 D9U      -0.084400
     18 C29         -9.7730     2.6730   -10.9460 c3         1 D9U      -0.082400
     19 C30         -9.7950     1.4770    -9.9720 c3         1 D9U       0.148800
     20 C33         -6.2040     3.3130   -13.0030 c          1 D9U       0.597100
     21 C35         -4.6660     3.3620   -13.2580 c3         1 D9U       0.033700
     22 C36         -3.8780     2.6570   -12.1270 c3         1 D9U      -0.090400
     23 C37         -2.3610     2.5260   -12.4060 c3         1 D9U      -0.077400
     24 C38         -1.6080     1.7680   -11.2850 c3         1 D9U      -0.076400
     25 C39         -0.1010     1.5600   -11.5560 c3         1 D9U       0.149800
     26 C42         -4.5100     5.5260   -14.5610 c          1 D9U       0.597100
     27 C44         -3.9650     6.9550   -14.5430 c3         1 D9U      -0.112100
     28 C45         -2.9810     7.1850   -15.6810 ca         1 D9U      -0.079300
     29 C46         -1.7900     6.4400   -15.7490 ca         1 D9U      -0.097500
     30 C47         -0.8950     6.6310   -16.8150 ca         1 D9U      -0.099000
     31 N05         -0.8080     8.2580   -20.2060 ns         1 D9U      -0.505900
     32 N11         -5.1790     7.4590   -20.8670 ns         1 D9U      -0.494900
     33 N15         -5.2940     5.8380   -18.2140 nu         1 D9U      -0.920400
     34 N17         -3.4060     5.1860   -18.5080 nv         1 D9U      -1.067200
     35 N18         -4.8510     4.6410   -20.0620 n2         1 D9U      -0.970100
     36 N23         -9.4870     6.2090   -14.4090 ns         1 D9U      -0.487900
     37 N31        -10.6960     0.4100   -10.4440 n8         1 D9U      -0.995200
     38 N32         -6.7790     4.5210   -12.6670 ns         1 D9U      -0.485900
     39 N40          0.6480     2.8320   -11.5710 n8         1 D9U      -0.998200
     40 N41         -4.1900     4.7550   -13.4620 ns         1 D9U      -0.519900
     41 O07         -2.0930     6.4490   -20.7260 o          1 D9U      -0.617100
     42 O13         -5.8850     9.0600   -19.4090 o          1 D9U      -0.615100
     43 O25         -7.4620     6.9860   -13.7140 o          1 D9U      -0.601100
     44 O34         -6.8690     2.2990   -13.1680 o          1 D9U      -0.605100
     45 O43         -5.2140     5.1020   -15.4660 o          1 D9U      -0.590100
     46 H101        -5.7180     9.0080   -22.1450 h1         1 D9U       0.058200
     47 H102        -4.8230     7.6960   -22.9170 h1         1 D9U       0.058200
     48 H202        -8.6470     5.4390   -18.2840 hc         1 D9U       0.053700
     49 H201        -7.9660     5.3560   -16.6690 hc         1 D9U       0.053700
     50 H211       -10.1860     7.3000   -17.5590 hc         1 D9U       0.041200
     51 H212       -10.4990     5.7390   -16.8320 hc         1 D9U       0.041200
     52 H221        -8.9810     8.0010   -15.4190 h1         1 D9U       0.054200
     53 H222       -10.7140     7.6750   -15.2400 h1         1 D9U       0.054200
     54 H261        -8.7330     4.0420   -13.3040 h1         1 D9U       0.068700
     55 H282        -7.8330     3.4460   -10.3360 hc         1 D9U       0.036700
     56 H281        -9.1910     4.1350    -9.4620 hc         1 D9U       0.036700
     57 H011        -4.1730     8.7240   -16.6390 ha         1 D9U       0.119000
     58 H021        -2.5990     9.0790   -18.4950 ha         1 D9U       0.117500
     59 H042         0.2570     6.7570   -19.2190 h1         1 D9U       0.061200
     60 H041         0.6120     8.4080   -18.6810 h1         1 D9U       0.061200
     61 H082        -2.3980     7.7140   -23.0200 hc         1 D9U       0.077700
     62 H081        -1.5080     9.1530   -22.4260 hc         1 D9U       0.077700
     63 H091        -3.5340     9.6360   -20.9010 hc         1 D9U       0.047200
     64 H092        -3.6500     9.9640   -22.6170 hc         1 D9U       0.047200
     65 H141        -6.9110     6.0940   -19.5570 h1         1 D9U       0.087700
     66 H192        -6.9190     7.5530   -16.8850 hc         1 D9U       0.062200
     67 H191        -7.9800     7.9810   -18.2200 hc         1 D9U       0.062200
     68 H271        -8.3150     5.8760   -10.8710 hc         1 D9U       0.061700
     69 H272        -9.8830     5.4140   -11.5090 hc         1 D9U       0.061700
     70 H291       -10.7920     3.0570   -11.0720 hc         1 D9U       0.049700
     71 H292        -9.4350     2.3240   -11.9280 hc         1 D9U       0.049700
     72 H302        -8.7830     1.0630    -9.8710 h1         1 D9U       0.024700
     73 H301       -10.1360     1.8110    -8.9820 h1         1 D9U       0.024700
     74 H351        -4.5020     2.8080   -14.1920 h1         1 D9U       0.100700
     75 H361        -4.0330     3.2000   -11.1860 hc         1 D9U       0.060700
     76 H362        -4.2970     1.6530   -11.9820 hc         1 D9U       0.060700
     77 H372        -2.2160     1.9980   -13.3570 hc         1 D9U       0.040200
     78 H371        -1.9250     3.5250   -12.5250 hc         1 D9U       0.040200
     79 H381        -1.7350     2.2990   -10.3340 hc         1 D9U       0.049200
     80 H382        -2.0690     0.7820   -11.1550 hc         1 D9U       0.049200
     81 H391         0.3230     0.9200   -10.7700 h1         1 D9U       0.030200
     82 H392         0.0360     1.0540   -12.5210 h1         1 D9U       0.030200
     83 H441        -3.4750     7.1590   -13.5840 hc         1 D9U       0.066700
     84 H442        -4.8170     7.6360   -14.6430 hc         1 D9U       0.066700
     85 H461        -1.5600     5.7030   -14.9820 ha         1 D9U       0.119000
     86 H471         0.0150     6.0370   -16.8610 ha         1 D9U       0.117500
     87 H051        -0.5680     9.1980   -20.4960 hn         1 D9U       0.316500
     88 H111        -5.0480     6.4500   -20.9470 hn         1 D9U       0.350500
     89 H151        -5.4290     5.5660   -17.2380 hn         1 D9U       0.506000
     90 H1          -3.4780     5.9120   -17.8150 hn         1 D9U       0.472000
     91 H171        -2.8770     5.5230   -19.3050 hn         1 D9U       0.472000
     92 H182        -3.9960     4.2130   -20.4310 hn         1 D9U       0.393400
     93 H231       -10.1600     5.4590   -14.2950 hn         1 D9U       0.315500
     94 H2         -10.7280    -0.3370    -9.7390 hn         1 D9U       0.393000
     95 H312       -11.6590     0.7680   -10.4570 hn         1 D9U       0.393000
     96 H321        -6.1320     5.2960   -12.5840 hn         1 D9U       0.325500
     97 H401         1.6260     2.6410   -11.8230 hn         1 D9U       0.390500
     98 H3           0.3060     3.4070   -12.3490 hn         1 D9U       0.390500
     99 H411        -3.5840     5.1730   -12.7640 hn         1 D9U       0.319500
    100 C28         -8.8560     3.8210   -10.4590 c3         1 D9U      -0.073400
    101 C16         -4.6010     4.9350   -18.8840 c2         1 D9U       0.823100
@<TRIPOS>BOND
     1     1    13 1   
     2     1    32 1   
     3     1    46 1   
     4     1    47 1   
     5     2     3 1   
     6     2    16 1   
     7     2    48 1   
     8     2    49 1   
     9     3     4 1   
    10     3    50 1   
    11     3    51 1   
    12     4    36 1   
    13     4    52 1   
    14     4    53 1   
    15     5     6 1   
    16     5    36 1   
    17     5    43 2   
    18     6    17 1   
    19     6    38 1   
    20     6    54 1   
    21     7     8 ar  
    22     7    28 ar  
    23     7    57 1   
    24     8     9 ar  
    25     8    58 1   
    26     9    10 1   
    27     9    30 ar  
    28    10    31 1   
    29    10    59 1   
    30    10    60 1   
    31    11    12 1   
    32    11    31 1   
    33    11    41 2   
    34    12    13 1   
    35    12    61 1   
    36    12    62 1   
    37    13    63 1   
    38    13    64 1   
    39    14    15 1   
    40    14    32 1   
    41    14    42 2   
    42    15    16 1   
    43    15    33 1   
    44    15    65 1   
    45    16    66 1   
    46    16    67 1   
    47    17    68 1   
    48    17    69 1   
    49    17   100 1   
    50    18    19 1   
    51    18    70 1   
    52    18    71 1   
    53    18   100 1   
    54    19    37 1   
    55    19    72 1   
    56    19    73 1   
    57    20    21 1   
    58    20    38 1   
    59    20    44 2   
    60    21    22 1   
    61    21    40 1   
    62    21    74 1   
    63    22    23 1   
    64    22    75 1   
    65    22    76 1   
    66    23    24 1   
    67    23    77 1   
    68    23    78 1   
    69    24    25 1   
    70    24    79 1   
    71    24    80 1   
    72    25    39 1   
    73    25    81 1   
    74    25    82 1   
    75    26    27 1   
    76    26    40 1   
    77    26    45 2   
    78    27    28 1   
    79    27    83 1   
    80    27    84 1   
    81    28    29 ar  
    82    29    30 ar  
    83    29    85 1   
    84    30    86 1   
    85    31    87 1   
    86    32    88 1   
    87    33    89 1   
    88    33   101 1   
    89    34    90 1   
    90    34    91 1   
    91    34   101 1   
    92    35    92 1   
    93    35   101 2   
    94    36    93 1   
    95    37    94 1   
    96    37    95 1   
    97    38    96 1   
    98    39    97 1   
    99    39    98 1   
   100    40    99 1   
   101    55   100 1   
   102    56   100 1   
@<TRIPOS>SUBSTRUCTURE
     1 D9U         1 TEMP              0 ****  ****    0 ROOT
