@<TRIPOS>MOLECULE
D9U
  101   102     1     0     0
SMALL
bcc


@<TRIPOS>ATOM
      1 C10         -5.2440     9.2060   -21.3830 c3         1 D9U       0.095000
      2 C20         -8.0400     4.6230   -18.1260 c3         1 D9U      -0.068400
      3 C21         -9.4990     4.3000   -17.8140 c3         1 D9U      -0.095400
      4 C22        -10.1230     5.0960   -16.6710 c3         1 D9U       0.099000
      5 C24         -8.6580     5.4820   -14.7180 c          1 D9U       0.654100
      6 C26         -8.2440     4.9030   -13.3610 c3         1 D9U       0.036700
      7 C01         -2.9100     8.2610   -15.8020 ca         1 D9U      -0.115500
      8 C02         -2.2870     8.9000   -16.8630 ca         1 D9U      -0.117000
      9 C03         -1.0330     8.4890   -17.3060 ca         1 D9U      -0.104300
     10 C04         -0.3500     9.2060   -18.4480 c3         1 D9U       0.149300
     11 C06         -1.6440     8.3730   -20.3370 c          1 D9U       0.670100
     12 C08         -2.7520     8.6780   -21.3210 c3         1 D9U      -0.172400
     13 C09         -3.8920     9.5370   -20.7520 c3         1 D9U      -0.106400
     14 C12         -6.4340     7.7600   -19.8080 c          1 D9U       0.623100
     15 C14         -6.5690     6.2950   -19.3630 c3         1 D9U       0.172500
     16 C19         -7.8370     6.0740   -18.5550 c3         1 D9U      -0.080400
     17 C27         -8.5570     5.9070   -12.2550 c3         1 D9U      -0.084400
     18 C29         -8.6440     4.1120   -10.4210 c3         1 D9U      -0.082400
     19 C30         -8.3050     3.8090    -8.9690 c3         1 D9U       0.148800
     20 C33         -6.3510     3.5220   -14.0280 c          1 D9U       0.664100
     21 C35         -4.8640     3.2330   -13.8490 c3         1 D9U       0.033700
     22 C36         -4.6950     2.1780   -12.7540 c3         1 D9U      -0.090400
     23 C37         -3.2770     1.6280   -12.6550 c3         1 D9U      -0.077400
     24 C38         -3.1680     0.5150   -11.6180 c3         1 D9U      -0.076400
     25 C39         -1.7990    -0.1480   -11.5750 c3         1 D9U       0.149800
     26 C42         -3.8500     5.3610   -14.4670 c          1 D9U       0.664100
     27 C44         -2.9680     6.5040   -14.0050 c3         1 D9U      -0.112100
     28 C45         -2.2910     7.1990   -15.1480 ca         1 D9U      -0.079300
     29 C46         -1.0410     6.7850   -15.5940 ca         1 D9U      -0.115500
     30 C47         -0.4220     7.4200   -16.6630 ca         1 D9U      -0.117000
     31 N05         -1.2230     9.4030   -19.5820 ns         1 D9U      -0.572900
     32 N11         -5.7470     7.9190   -20.9540 ns         1 D9U      -0.561900
     33 N15         -5.3870     5.9200   -18.6120 nu         1 D9U      -0.865200
     34 N17         -3.1310     5.4690   -18.3850 nv         1 D9U      -0.956800
     35 N18         -4.1470     5.5360   -20.5140 n2         1 D9U      -0.970100
     36 N23         -9.5800     4.7650   -15.3720 ns         1 D9U      -0.554900
     37 N31         -8.7850     2.4910    -8.5790 n8         1 D9U      -0.884800
     38 N32         -6.8350     4.5830   -13.3700 ns         1 D9U      -0.552900
     39 N40         -0.7600     0.7800   -11.1490 n8         1 D9U      -0.887800
     40 N41         -4.0860     4.4100   -13.5430 ns         1 D9U      -0.586900
     41 O07         -1.1550     7.2550   -20.2280 o          1 D9U      -0.617100
     42 O13         -6.8970     8.6850   -19.1540 o          1 D9U      -0.615100
     43 O25         -8.1900     6.5380   -15.1160 o          1 D9U      -0.601100
     44 O34         -7.0530     2.7620   -14.6780 o          1 D9U      -0.605100
     45 O43         -4.3470     5.3080   -15.5810 o          1 D9U      -0.590100
     46 H101        -5.9740     9.9720   -21.1250 h1         1 D9U       0.058200
     47 H102        -5.1630     9.1990   -22.4720 h1         1 D9U       0.058200
     48 H202        -7.7140     3.9560   -18.9290 hc         1 D9U       0.053700
     49 H201        -7.4120     4.3850   -17.2640 hc         1 D9U       0.053700
     50 H211       -10.1040     4.4810   -18.7080 hc         1 D9U       0.041200
     51 H212        -9.5980     3.2330   -17.5910 hc         1 D9U       0.041200
     52 H221       -10.0090     6.1680   -16.8290 h1         1 D9U       0.054200
     53 H222       -11.1960     4.8960   -16.6440 h1         1 D9U       0.054200
     54 H261        -8.7990     3.9810   -13.1670 h1         1 D9U       0.068700
     55 H282        -7.0220     5.4710   -10.7910 hc         1 D9U       0.036700
     56 H281        -8.4500     6.2360   -10.1550 hc         1 D9U       0.036700
     57 H011        -3.8850     8.6000   -15.4740 ha         1 D9U       0.137000
     58 H021        -2.7890     9.7310   -17.3440 ha         1 D9U       0.135500
     59 H042         0.5430     8.6590   -18.7520 h1         1 D9U       0.061200
     60 H041        -0.0180    10.1930   -18.1220 h1         1 D9U       0.061200
     61 H082        -3.1250     7.7120   -21.6570 hc         1 D9U       0.077700
     62 H081        -2.3230     9.1700   -22.1990 hc         1 D9U       0.077700
     63 H091        -3.9830     9.3960   -19.6720 hc         1 D9U       0.047200
     64 H092        -3.6800    10.5980   -20.9070 hc         1 D9U       0.047200
     65 H141        -6.5990     5.6570   -20.2490 h1         1 D9U       0.087700
     66 H192        -7.8480     6.7300   -17.6840 hc         1 D9U       0.062200
     67 H191        -8.6780     6.3830   -19.1840 hc         1 D9U       0.062200
     68 H271        -8.0950     6.8660   -12.5000 hc         1 D9U       0.061700
     69 H272        -9.6370     6.0740   -12.2580 hc         1 D9U       0.061700
     70 H291        -9.7310     4.0800   -10.5560 hc         1 D9U       0.049700
     71 H292        -8.2270     3.3180   -11.0470 hc         1 D9U       0.049700
     72 H302        -7.2180     3.8250    -8.8480 h1         1 D9U       0.024700
     73 H301        -8.6950     4.6220    -8.3370 h1         1 D9U       0.024700
     74 H351        -4.5210     2.8080   -14.7970 h1         1 D9U       0.100700
     75 H361        -5.0100     2.5950   -11.7910 hc         1 D9U       0.060700
     76 H362        -5.3810     1.3580   -12.9760 hc         1 D9U       0.060700
     77 H372        -2.9740     1.2450   -13.6350 hc         1 D9U       0.040200
     78 H371        -2.5780     2.4320   -12.4080 hc         1 D9U       0.040200
     79 H381        -3.4100     0.9090   -10.6260 hc         1 D9U       0.049200
     80 H382        -3.9150    -0.2540   -11.8390 hc         1 D9U       0.049200
     81 H391        -1.8330    -0.9680   -10.8530 h1         1 D9U       0.030200
     82 H392        -1.6010    -0.6090   -12.5540 h1         1 D9U       0.030200
     83 H441        -2.2340     6.1400   -13.2830 hc         1 D9U       0.066700
     84 H442        -3.6090     7.2050   -13.4610 hc         1 D9U       0.066700
     85 H461        -0.5420     5.9570   -15.1050 ha         1 D9U       0.137000
     86 H471         0.5510     7.0780   -16.9960 ha         1 D9U       0.135500
     87 H051        -1.6550    10.3050   -19.6930 hn         1 D9U       0.316500
     88 H111        -5.2420     7.0880   -21.2590 hn         1 D9U       0.350500
     89 H151        -5.3610     6.1880   -17.6400 hn         1 D9U       0.450800
     90 H1          -3.2630     5.7340   -17.4190 hn         1 D9U       0.416800
     91 H171        -2.2460     5.7830   -18.7550 hn         1 D9U       0.416800
     92 H182        -3.2080     5.3010   -20.8110 hn         1 D9U       0.393400
     93 H231        -9.8170     3.8600   -15.0010 hn         1 D9U       0.315500
     94 H2          -8.5260     2.3110    -7.6170 hn         1 D9U       0.337800
     95 H312        -9.7980     2.4890    -8.5900 hn         1 D9U       0.337800
     96 H321        -6.1920     5.2050   -12.9070 hn         1 D9U       0.325500
     97 H401         0.1160     0.2800   -11.0620 hn         1 D9U       0.335300
     98 H3          -0.6000     1.4700   -11.8720 hn         1 D9U       0.335300
     99 H411        -3.6190     4.4660   -12.6520 hn         1 D9U       0.319500
    100 C28         -8.1140     5.4710   -10.8610 c3         1 D9U      -0.073400
    101 C16         -4.1960     5.6550   -19.2310 c2         1 D9U       0.823100
@<TRIPOS>BOND
     1     1    13 1   
     2     1    32 1   
     3     1    46 1   
     4     1    47 1   
     5     2     3 1   
     6     2    16 1   
     7     2    48 1   
     8     2    49 1   
     9     3     4 1   
    10     3    50 1   
    11     3    51 1   
    12     4    36 1   
    13     4    52 1   
    14     4    53 1   
    15     5     6 1   
    16     5    36 1   
    17     5    43 2   
    18     6    17 1   
    19     6    38 1   
    20     6    54 1   
    21     7     8 ar  
    22     7    28 ar  
    23     7    57 1   
    24     8     9 ar  
    25     8    58 1   
    26     9    10 1   
    27     9    30 ar  
    28    10    31 1   
    29    10    59 1   
    30    10    60 1   
    31    11    12 1   
    32    11    31 1   
    33    11    41 2   
    34    12    13 1   
    35    12    61 1   
    36    12    62 1   
    37    13    63 1   
    38    13    64 1   
    39    14    15 1   
    40    14    32 1   
    41    14    42 2   
    42    15    16 1   
    43    15    33 1   
    44    15    65 1   
    45    16    66 1   
    46    16    67 1   
    47    17    68 1   
    48    17    69 1   
    49    17   100 1   
    50    18    19 1   
    51    18    70 1   
    52    18    71 1   
    53    18   100 1   
    54    19    37 1   
    55    19    72 1   
    56    19    73 1   
    57    20    21 1   
    58    20    38 1   
    59    20    44 2   
    60    21    22 1   
    61    21    40 1   
    62    21    74 1   
    63    22    23 1   
    64    22    75 1   
    65    22    76 1   
    66    23    24 1   
    67    23    77 1   
    68    23    78 1   
    69    24    25 1   
    70    24    79 1   
    71    24    80 1   
    72    25    39 1   
    73    25    81 1   
    74    25    82 1   
    75    26    27 1   
    76    26    40 1   
    77    26    45 2   
    78    27    28 1   
    79    27    83 1   
    80    27    84 1   
    81    28    29 ar  
    82    29    30 ar  
    83    29    85 1   
    84    30    86 1   
    85    31    87 1   
    86    32    88 1   
    87    33    89 1   
    88    33   101 1   
    89    34    90 1   
    90    34    91 1   
    91    34   101 1   
    92    35    92 1   
    93    35   101 2   
    94    36    93 1   
    95    37    94 1   
    96    37    95 1   
    97    38    96 1   
    98    39    97 1   
    99    39    98 1   
   100    40    99 1   
   101    55   100 1   
   102    56   100 1   
@<TRIPOS>SUBSTRUCTURE
     1 D9U         1 TEMP              0 ****  ****    0 ROOT
