@<TRIPOS>MOLECULE
D9V
   46    49     1     0     0
SMALL
No Charge or Current Charge


@<TRIPOS>ATOM
      1 O3         -12.7670     2.4940     3.2650 oh         1 D9V      -0.658000
      2 C4         -11.3440    -0.9180     1.2000 c3         1 D9V       0.143500
      3 C5         -12.3310     1.4450     1.1220 c6         1 D9V       0.103500
      4 C6         -12.1890     1.7320    -0.4140 c5         1 D9V       0.089300
      5 N1         -13.0100     5.3040     1.8040 n3         1 D9V      -0.757600
      6 C7         -13.5800     1.9560    -1.0990 c5         1 D9V       0.132600
      7 C8         -12.6690     3.9490    -0.3390 c5         1 D9V       0.363300
      8 C9         -13.1020     3.9170     1.1900 c6         1 D9V       0.168500
      9 C10        -12.3000     2.7780     1.9350 c6         1 D9V       0.153300
     10 C11        -11.6190     5.8610     1.8690 c6         1 D9V       0.187300
     11 C12        -11.5480     7.2340     2.6000 c6         1 D9V      -0.076900
     12 C13        -12.9410     7.8850     2.7650 c6         1 D9V      -0.063400
     13 C14        -13.9090     6.9240     3.5060 c6         1 D9V      -0.076900
     14 C15        -13.7100     5.4310     3.1110 c6         1 D9V       0.187300
     15 O1         -13.7010     3.3990    -1.1880 os         1 D9V      -0.467000
     16 O2         -11.5830     3.0320    -0.5990 os         1 D9V      -0.449000
     17 N          -11.2990     0.5000     1.6480 n7         1 D9V      -0.877400
     18 C2         -12.6760    -1.5790     1.4790 cc         1 D9V       0.114300
     19 C1         -13.7520    -1.8010     0.6630 cd         1 D9V      -0.180000
     20 O          -12.9460    -2.0650     2.7410 os         1 D9V      -0.223000
     21 C3         -14.2170    -2.5940     2.7010 cc         1 D9V       0.127900
     22 C          -14.7330    -2.4470     1.4420 cd         1 D9V      -0.189000
     23 H1         -12.3670     1.6180     3.4730 ho         1 D9V       0.467000
     24 H2         -10.5620    -1.4960     1.7120 h1         1 D9V       0.049700
     25 H3         -11.1380    -0.9920     0.1240 h1         1 D9V       0.049700
     26 H4         -13.3210     0.9930     1.2870 h1         1 D9V       0.088700
     27 H5         -11.5990     0.9540    -0.9160 h1         1 D9V       0.086700
     28 H7         -14.4180     1.5440    -0.5200 h1         1 D9V       0.058700
     29 H8         -13.6120     1.5310    -2.1110 h1         1 D9V       0.058700
     30 H9         -12.4140     4.9660    -0.6640 h2         1 D9V       0.114700
     31 H10        -14.1590     3.6120     1.2010 h1         1 D9V       0.088700
     32 H11        -11.2480     3.0930     1.9870 h1         1 D9V       0.038700
     33 H12        -10.9390     5.1710     2.3870 h1         1 D9V       0.036700
     34 H13        -11.2210     5.9920     0.8520 h1         1 D9V       0.036700
     35 H14        -11.1020     7.0890     3.5930 hc         1 D9V       0.038450
     36 H15        -10.8730     7.9110     2.0580 hc         1 D9V       0.038450
     37 H16        -12.8600     8.8360     3.3080 hc         1 D9V       0.041200
     38 H17        -13.3480     8.1260     1.7730 hc         1 D9V       0.041200
     39 H18        -14.9440     7.2250     3.2930 hc         1 D9V       0.038450
     40 H19        -13.7800     7.0250     4.5920 hc         1 D9V       0.038450
     41 H20        -14.6920     4.9350     3.0870 h1         1 D9V       0.036700
     42 H21        -13.1210     4.9450     3.9020 h1         1 D9V       0.036700
     43 H22        -10.3630     0.8770     1.4400 hn         1 D9V       0.427000
     44 H24        -13.8280    -1.5270    -0.3850 ha         1 D9V       0.138000
     45 H25        -14.6170    -3.0280     3.6080 h4         1 D9V       0.054100
     46 H26        -15.7160    -2.7700     1.1150 ha         1 D9V       0.143000
@<TRIPOS>BOND
     1     1     9 1   
     2     1    23 1   
     3     2    17 1   
     4     2    18 1   
     5     2    24 1   
     6     2    25 1   
     7     3     4 1   
     8     3     9 1   
     9     3    17 1   
    10     3    26 1   
    11     4     6 1   
    12     4    16 1   
    13     4    27 1   
    14     5     8 1   
    15     5    10 1   
    16     5    14 1   
    17     6    15 1   
    18     6    28 1   
    19     6    29 1   
    20     7     8 1   
    21     7    15 1   
    22     7    16 1   
    23     7    30 1   
    24     8     9 1   
    25     8    31 1   
    26     9    32 1   
    27    10    11 1   
    28    10    33 1   
    29    10    34 1   
    30    11    12 1   
    31    11    35 1   
    32    11    36 1   
    33    12    13 1   
    34    12    37 1   
    35    12    38 1   
    36    13    14 1   
    37    13    39 1   
    38    13    40 1   
    39    14    41 1   
    40    14    42 1   
    41    17    43 1   
    42    18    19 2   
    43    18    20 1   
    44    19    22 1   
    45    19    44 1   
    46    20    21 1   
    47    21    22 2   
    48    21    45 1   
    49    22    46 1   
@<TRIPOS>SUBSTRUCTURE
     1 D9V         1 TEMP              0 ****  ****    0 ROOT
