@<TRIPOS>MOLECULE
D9V
   46    49     1     0     0
SMALL
bcc


@<TRIPOS>ATOM
      1 O3         -12.8940     2.3320     3.1900 oh         1 D9V      -0.595800
      2 C4         -11.5080    -0.8170     1.0750 c3         1 D9V       0.143500
      3 C5         -12.2940     1.5050     1.0140 c6         1 D9V       0.103500
      4 C6         -11.9340     1.9540    -0.4220 c5         1 D9V       0.066100
      5 N1         -13.0070     5.1610     1.9690 n3         1 D9V      -0.757600
      6 C7         -13.1560     2.0250    -1.3260 c5         1 D9V       0.109400
      7 C8         -12.7770     3.9600    -0.1640 c5         1 D9V       0.316900
      8 C9         -13.1520     3.8680     1.3370 c6         1 D9V       0.168500
      9 C10        -12.3470     2.7170     1.9530 c6         1 D9V       0.130100
     10 C11        -11.6620     5.6620     2.1640 c6         1 D9V       0.187300
     11 C12        -11.6900     7.1960     2.1380 c6         1 D9V      -0.076900
     12 C13        -13.0170     7.7260     2.6950 c6         1 D9V      -0.063400
     13 C14        -13.5550     6.7640     3.7450 c6         1 D9V      -0.076900
     14 C15        -13.8560     5.3910     3.1280 c6         1 D9V       0.187300
     15 O1         -13.7210     3.2790    -0.9680 os         1 D9V      -0.420600
     16 O2         -11.5530     3.3270    -0.4150 os         1 D9V      -0.402600
     17 N          -11.4140     0.5260     1.6200 n7         1 D9V      -0.822200
     18 C2         -12.8000    -1.4630     1.4260 cc         1 D9V       0.224000
     19 C1         -13.8000    -1.9790     0.6710 cd         1 D9V      -0.263300
     20 O          -13.1060    -1.5920     2.7360 os         1 D9V      -0.311800
     21 C3         -14.3100    -2.1950     2.8200 cc         1 D9V       0.237600
     22 C          -14.7880    -2.4620     1.5830 cd         1 D9V      -0.272300
     23 H1         -12.4620     1.4950     3.4130 ho         1 D9V       0.428000
     24 H2         -10.6750    -1.3960     1.4820 h1         1 D9V       0.049700
     25 H3         -11.4070    -0.8640    -0.0190 h1         1 D9V       0.049700
     26 H4         -13.2970     1.0630     1.0010 h1         1 D9V       0.088700
     27 H5         -11.1170     1.3650    -0.8440 h1         1 D9V       0.086700
     28 H7         -13.8720     1.2200    -1.1460 h1         1 D9V       0.058700
     29 H8         -12.8770     2.0130    -2.3840 h1         1 D9V       0.058700
     30 H9         -12.7150     5.0070    -0.4760 h2         1 D9V       0.114700
     31 H10        -14.2150     3.6110     1.3930 h1         1 D9V       0.088700
     32 H11        -11.3110     3.0640     2.0940 h1         1 D9V       0.038700
     33 H12        -11.2170     5.3050     3.1070 h1         1 D9V       0.036700
     34 H13        -11.0090     5.2920     1.3720 h1         1 D9V       0.036700
     35 H14        -10.8500     7.5800     2.7210 hc         1 D9V       0.038450
     36 H15        -11.5480     7.5510     1.1150 hc         1 D9V       0.038450
     37 H16        -12.8810     8.7220     3.1210 hc         1 D9V       0.041200
     38 H17        -13.7490     7.8310     1.8910 hc         1 D9V       0.041200
     39 H18        -14.4590     7.1560     4.2160 hc         1 D9V       0.038450
     40 H19        -12.8160     6.6610     4.5450 hc         1 D9V       0.038450
     41 H20        -14.8980     5.3530     2.7950 h1         1 D9V       0.036700
     42 H21        -13.7420     4.6220     3.9020 h1         1 D9V       0.036700
     43 H22        -10.4510     0.8410     1.5800 hn         1 D9V       0.371800
     44 H24        -13.8310    -2.0080    -0.4070 ha         1 D9V       0.156000
     45 H25        -14.6990    -2.3660     3.8110 h4         1 D9V       0.054100
     46 H26        -15.7260    -2.9380     1.3460 ha         1 D9V       0.161000
@<TRIPOS>BOND
     1     1     9 1   
     2     1    23 1   
     3     2    17 1   
     4     2    18 1   
     5     2    24 1   
     6     2    25 1   
     7     3     4 1   
     8     3     9 1   
     9     3    17 1   
    10     3    26 1   
    11     4     6 1   
    12     4    16 1   
    13     4    27 1   
    14     5     8 1   
    15     5    10 1   
    16     5    14 1   
    17     6    15 1   
    18     6    28 1   
    19     6    29 1   
    20     7     8 1   
    21     7    15 1   
    22     7    16 1   
    23     7    30 1   
    24     8     9 1   
    25     8    31 1   
    26     9    32 1   
    27    10    11 1   
    28    10    33 1   
    29    10    34 1   
    30    11    12 1   
    31    11    35 1   
    32    11    36 1   
    33    12    13 1   
    34    12    37 1   
    35    12    38 1   
    36    13    14 1   
    37    13    39 1   
    38    13    40 1   
    39    14    41 1   
    40    14    42 1   
    41    17    43 1   
    42    18    19 2   
    43    18    20 1   
    44    19    22 1   
    45    19    44 1   
    46    20    21 1   
    47    21    22 2   
    48    21    45 1   
    49    22    46 1   
@<TRIPOS>SUBSTRUCTURE
     1 D9V         1 TEMP              0 ****  ****    0 ROOT
