@<TRIPOS>MOLECULE
D9W
   41    43     1     0     0
SMALL
abcg2


@<TRIPOS>ATOM
      1 C2          -4.3260     0.8980     0.1520 ca         1 D9W      -0.068900
      2 C3          -3.0130     1.3240    -0.0290 ca         1 D9W       0.369900
      3 C11         -1.0550    -1.7460     0.1690 c          1 D9W       0.513600
      4 C15          1.4150    -1.6310    -0.0560 ca         1 D9W      -0.026000
      5 C16          2.4430    -0.7040    -0.2500 ca         1 D9W      -0.136000
      6 C18          3.7710    -1.0940    -0.3040 ca         1 D9W      -0.041300
      7 C19          4.0730    -2.4500    -0.1590 ca         1 D9W      -0.137000
      8 C21          3.0580    -3.3700     0.0330 ca         1 D9W      -0.090000
      9 C23          1.7250    -2.9820     0.0860 ca         1 D9W      -0.133000
     10 C25          4.8870    -0.0720    -0.4750 c6         1 D9W       0.180500
     11 C27          4.8310     2.2560    -0.1680 c2         1 D9W       0.593200
     12 C28          6.0040     2.2250     0.7820 c6         1 D9W       0.060300
     13 BR1         -5.7200     2.1520     0.1310 br         1 D9W      -0.065100
     14 N5          -2.0030     0.4760    -0.0200 nb         1 D9W      -0.680000
     15 C6          -2.2370    -0.8180     0.1650 ca         1 D9W       0.297500
     16 C7          -3.5140    -1.3270     0.3510 ca         1 D9W      -0.102000
     17 C9          -4.5850    -0.4480     0.3460 ca         1 D9W      -0.055000
     18 O12         -1.2030    -2.9450     0.3310 o          1 D9W      -0.583100
     19 N13          0.1190    -1.1120    -0.0170 ns         1 D9W      -0.124000
     20 N26          4.3150     1.2360    -0.7280 n2         1 D9W      -0.684900
     21 O31          6.6460     0.9830     0.7950 os         1 D9W      -0.431000
     22 C32          5.7120    -0.0720     0.8170 c6         1 D9W       0.123600
     23 N35          4.3510     3.5050    -0.4210 nv         1 D9W      -1.033200
     24 C38          5.7610    -0.4450    -1.6800 c3         1 D9W      -0.078100
     25 H1          -2.7780     2.3710    -0.1840 h4         1 D9W       0.039100
     26 H2           2.2020     0.3450    -0.3670 ha         1 D9W       0.131000
     27 H3           5.0980    -2.7970    -0.1950 ha         1 D9W       0.111000
     28 H4           3.3000    -4.4190     0.1440 ha         1 D9W       0.114000
     29 H5           0.9580    -3.7240     0.2330 ha         1 D9W       0.145000
     30 H6           6.7380     2.9780     0.4870 h1         1 D9W       0.059700
     31 H7           5.6410     2.5010     1.7840 h1         1 D9W       0.059700
     32 H8          -3.6750    -2.3850     0.4990 ha         1 D9W       0.155000
     33 H9          -5.5920    -0.8150     0.4910 ha         1 D9W       0.141000
     34 H10          0.0380    -0.1090    -0.1320 hn         1 D9W       0.181000
     35 H11          5.0430     0.0180     1.6860 h1         1 D9W       0.059700
     36 H12          6.2770    -0.9990     0.9270 h1         1 D9W       0.059700
     37 H13          3.4310     3.5630    -0.8260 hn         1 D9W       0.470500
     38 H14          4.5670     4.2420     0.2300 hn         1 D9W       0.470500
     39 H15          5.1700    -0.4210    -2.5960 hc         1 D9W       0.045367
     40 H16          6.5810     0.2650    -1.7860 hc         1 D9W       0.045367
     41 H17          6.1890    -1.4430    -1.5830 hc         1 D9W       0.045367
@<TRIPOS>BOND
     1     1     2 ar  
     2     1    13 1   
     3     1    17 ar  
     4     2    14 ar  
     5     2    25 1   
     6     3    15 1   
     7     3    18 2   
     8     3    19 1   
     9     4     5 ar  
    10     4     9 ar  
    11     4    19 1   
    12     5     6 ar  
    13     5    26 1   
    14     6     7 ar  
    15     6    10 1   
    16     7     8 ar  
    17     7    27 1   
    18     8     9 ar  
    19     8    28 1   
    20     9    29 1   
    21    10    20 1   
    22    10    22 1   
    23    10    24 1   
    24    11    12 1   
    25    11    20 2   
    26    11    23 1   
    27    12    21 1   
    28    12    30 1   
    29    12    31 1   
    30    14    15 ar  
    31    15    16 ar  
    32    16    17 ar  
    33    16    32 1   
    34    17    33 1   
    35    19    34 1   
    36    21    22 1   
    37    22    35 1   
    38    22    36 1   
    39    23    37 1   
    40    23    38 1   
    41    24    39 1   
    42    24    40 1   
    43    24    41 1   
@<TRIPOS>SUBSTRUCTURE
     1 D9W         1 TEMP              0 ****  ****    0 ROOT
