@<TRIPOS>MOLECULE
D9W
   41    43     1     0     0
SMALL
No Charge or Current Charge


@<TRIPOS>ATOM
      1 C2          -4.5470     0.8830     0.0820 ca         1 D9W      -0.068900
      2 C3          -3.2250     1.3370    -0.0700 ca         1 D9W       0.369900
      3 C11         -1.1670    -1.7850     0.1960 c          1 D9W       0.513600
      4 C15          1.4030    -1.6390    -0.0040 ca         1 D9W      -0.026000
      5 C16          2.4280    -0.6920    -0.1990 ca         1 D9W      -0.136000
      6 C18          3.7920    -1.0750    -0.2460 ca         1 D9W      -0.041300
      7 C19          4.1030    -2.4430    -0.0860 ca         1 D9W      -0.137000
      8 C21          3.0900    -3.3940     0.1090 ca         1 D9W      -0.090000
      9 C23          1.7450    -2.9980     0.1500 ca         1 D9W      -0.133000
     10 C25          4.9400    -0.0430    -0.4530 c6         1 D9W       0.180500
     11 C27          5.0040     2.3450    -0.1530 c2         1 D9W       0.593200
     12 C28          6.2390     2.2720     0.7720 c6         1 D9W       0.060300
     13 Br1         -6.0110     2.1150     0.0230 br         1 D9W      -0.065100
     14 N5          -2.1530     0.5060    -0.0360 nb         1 D9W      -0.680000
     15 C6          -2.3670    -0.8330     0.1550 ca         1 D9W       0.297500
     16 C7          -3.6730    -1.3510     0.3150 ca         1 D9W      -0.102000
     17 C9          -4.7800    -0.4860     0.2780 ca         1 D9W      -0.055000
     18 O12         -1.2930    -2.9970     0.3650 o          1 D9W      -0.583100
     19 N13          0.0640    -1.1560     0.0270 ns         1 D9W      -0.124000
     20 N26          4.4170     1.3390    -0.6810 n2         1 D9W      -0.684900
     21 O31          6.8750     0.9700     0.7340 os         1 D9W      -0.431000
     22 C32          5.9180    -0.1120     0.7750 c6         1 D9W       0.123600
     23 N35          4.5080     3.5950    -0.3800 nv         1 D9W      -1.033200
     24 C38          5.7120    -0.4040    -1.7590 c3         1 D9W      -0.078100
     25 H1          -3.0150     2.3940    -0.2240 h4         1 D9W       0.039100
     26 H2           2.1480     0.3510    -0.3140 ha         1 D9W       0.131000
     27 H3           5.1370    -2.7810    -0.1100 ha         1 D9W       0.111000
     28 H4           3.3500    -4.4440     0.2300 ha         1 D9W       0.114000
     29 H5           0.9900    -3.7620     0.3020 ha         1 D9W       0.145000
     30 H6           6.9750     3.0340     0.4810 h1         1 D9W       0.059700
     31 H7           5.9250     2.4800     1.8040 h1         1 D9W       0.059700
     32 H8          -3.8250    -2.4170     0.4650 ha         1 D9W       0.155000
     33 H9          -5.7920    -0.8690     0.4000 ha         1 D9W       0.141000
     34 H10         -0.0160    -0.1540    -0.1000 hn         1 D9W       0.181000
     35 H11          5.3450    -0.0450     1.7120 h1         1 D9W       0.059700
     36 H12          6.4610    -1.0670     0.7830 h1         1 D9W       0.059700
     37 H13          3.5710     3.5710    -0.7680 hn         1 D9W       0.470500
     38 H14          4.6360     4.2560     0.3790 hn         1 D9W       0.470500
     39 H15          5.0390    -0.4250    -2.6240 hc         1 D9W       0.045367
     40 H16          6.5040     0.3240    -1.9740 hc         1 D9W       0.045367
     41 H17          6.1900    -1.3880    -1.6920 hc         1 D9W       0.045367
@<TRIPOS>BOND
     1     1     2 ar  
     2     1    13 1   
     3     1    17 ar  
     4     2    14 ar  
     5     2    25 1   
     6     3    15 1   
     7     3    18 2   
     8     3    19 1   
     9     4     5 ar  
    10     4     9 ar  
    11     4    19 1   
    12     5     6 ar  
    13     5    26 1   
    14     6     7 ar  
    15     6    10 1   
    16     7     8 ar  
    17     7    27 1   
    18     8     9 ar  
    19     8    28 1   
    20     9    29 1   
    21    10    20 1   
    22    10    22 1   
    23    10    24 1   
    24    11    12 1   
    25    11    20 2   
    26    11    23 1   
    27    12    21 1   
    28    12    30 1   
    29    12    31 1   
    30    14    15 ar  
    31    15    16 ar  
    32    16    17 ar  
    33    16    32 1   
    34    17    33 1   
    35    19    34 1   
    36    21    22 1   
    37    22    35 1   
    38    22    36 1   
    39    23    37 1   
    40    23    38 1   
    41    24    39 1   
    42    24    40 1   
    43    24    41 1   
@<TRIPOS>SUBSTRUCTURE
     1 D9W         1 TEMP              0 ****  ****    0 ROOT
