@<TRIPOS>MOLECULE
D9Y
   56    59     1     0     0
SMALL
bcc


@<TRIPOS>ATOM
      1 O3          -5.0880     2.7310     7.7770 oh         1 D9Y      -0.569800
      2 C4          -3.5110     8.5970     6.8860 c6         1 D9Y      -0.091400
      3 C5          -3.5260    10.1220     6.9350 c6         1 D9Y      -0.071400
      4 C6          -2.6670     5.8070     8.2710 c          1 D9Y       0.775100
      5 N1          -2.7410     4.4770     7.9500 ns         1 D9Y      -0.587900
      6 C7          -3.0910     3.4840     8.9370 c6         1 D9Y       0.046700
      7 C8          -1.8820     2.9350     9.7300 c5         1 D9Y       0.075100
      8 N2          -4.5870     0.0070     8.5690 n3         1 D9Y      -0.727600
      9 C9          -2.1880     2.7150    11.2150 c5         1 D9Y       0.108400
     10 C10         -2.6440     0.8990     9.9290 c5         1 D9Y       0.278900
     11 C11         -4.0010     1.1630     9.2080 c6         1 D9Y       0.157500
     12 C12         -3.8240     2.3300     8.2390 c6         1 D9Y       0.155100
     13 C13         -5.0750    -0.9970     9.4980 c6         1 D9Y       0.180800
     14 C14         -6.1290    -1.8730     8.8120 c6         1 D9Y      -0.075900
     15 C15         -5.8100    -2.0590     7.3230 c6         1 D9Y      -0.065400
     16 O           -3.0590     6.2430     9.3470 o          1 D9Y      -0.634100
     17 N           -2.1270     6.5900     7.3030 ns         1 D9Y      -0.576900
     18 C3          -2.1710     8.0390     7.3660 c6         1 D9Y       0.116700
     19 C2          -1.0180     8.6270     6.5580 c6         1 D9Y      -0.091400
     20 C1          -1.0330    10.1520     6.6050 c6         1 D9Y      -0.071400
     21 C           -2.3710    10.7110     6.1320 c6         1 D9Y      -0.077400
     22 O1          -2.6700     1.3780    11.2550 os         1 D9Y      -0.418600
     23 O2          -1.6030     1.6050     9.3120 os         1 D9Y      -0.401600
     24 C17         -3.8080    -0.5620     7.4740 c6         1 D9Y       0.180800
     25 C16         -4.3080    -1.9610     7.1090 c6         1 D9Y      -0.075900
     26 H1          -4.9590     3.4950     7.2040 ho         1 D9Y       0.407000
     27 H3          -3.6890     8.2600     5.8590 hc         1 D9Y       0.044700
     28 H4          -3.4480    10.4500     7.9770 hc         1 D9Y       0.043950
     29 H5          -4.4810    10.4990     6.5630 hc         1 D9Y       0.043950
     30 H6          -2.2130     4.1550     7.1520 hn         1 D9Y       0.301500
     31 H7          -3.7890     3.9580     9.6290 h1         1 D9Y       0.105700
     32 H8          -0.9960     3.5500     9.5700 h1         1 D9Y       0.096700
     33 H10         -1.2870     2.8030    11.8270 h1         1 D9Y       0.064700
     34 H11         -2.9350     3.4130    11.5990 h1         1 D9Y       0.064700
     35 H12         -2.3940    -0.1650     9.9410 h2         1 D9Y       0.102700
     36 H13         -4.7140     1.4850     9.9770 h1         1 D9Y       0.089700
     37 H14         -3.1980     2.0030     7.3960 h1         1 D9Y       0.036700
     38 H15         -5.5200    -0.4890    10.3550 h1         1 D9Y       0.031700
     39 H16         -4.2670    -1.6250     9.9070 h1         1 D9Y       0.031700
     40 H17         -7.1180    -1.4250     8.9290 hc         1 D9Y       0.040450
     41 H18         -6.1660    -2.8410     9.3170 hc         1 D9Y       0.040450
     42 H19         -6.3090    -1.2890     6.7300 hc         1 D9Y       0.044200
     43 H20         -6.1920    -3.0180     6.9680 hc         1 D9Y       0.044200
     44 H21         -1.9880     6.1880     6.3890 hn         1 D9Y       0.299500
     45 H22         -2.0310     8.3240     8.4120 h1         1 D9Y       0.082700
     46 H23         -1.1010     8.2980     5.5140 hc         1 D9Y       0.044700
     47 H24         -0.0680     8.2410     6.9370 hc         1 D9Y       0.044700
     48 H25         -0.2170    10.5480     5.9960 hc         1 D9Y       0.043950
     49 H26         -0.8420    10.4840     7.6310 hc         1 D9Y       0.043950
     50 H27         -2.5070    10.4730     5.0720 hc         1 D9Y       0.040700
     51 H28         -2.3730    11.8010     6.2090 hc         1 D9Y       0.040700
     52 H29         -2.7320    -0.6170     7.7000 h1         1 D9Y       0.031700
     53 H30         -3.9080     0.0880     6.6000 h1         1 D9Y       0.031700
     54 H31         -3.8070    -2.7160     7.7230 hc         1 D9Y       0.040450
     55 H32         -4.0340    -2.1780     6.0750 hc         1 D9Y       0.040450
     56 H2          -4.3190     8.1880     7.4980 hc         1 D9Y       0.044700
@<TRIPOS>BOND
     1     1    12 1   
     2     1    26 1   
     3     2     3 1   
     4     2    18 1   
     5     2    27 1   
     6     2    56 1   
     7     3    21 1   
     8     3    28 1   
     9     3    29 1   
    10     4     5 1   
    11     4    16 2   
    12     4    17 1   
    13     5     6 1   
    14     5    30 1   
    15     6     7 1   
    16     6    12 1   
    17     6    31 1   
    18     7     9 1   
    19     7    23 1   
    20     7    32 1   
    21     8    11 1   
    22     8    13 1   
    23     8    24 1   
    24     9    22 1   
    25     9    33 1   
    26     9    34 1   
    27    10    11 1   
    28    10    22 1   
    29    10    23 1   
    30    10    35 1   
    31    11    12 1   
    32    11    36 1   
    33    12    37 1   
    34    13    14 1   
    35    13    38 1   
    36    13    39 1   
    37    14    15 1   
    38    14    40 1   
    39    14    41 1   
    40    15    25 1   
    41    15    42 1   
    42    15    43 1   
    43    17    18 1   
    44    17    44 1   
    45    18    19 1   
    46    18    45 1   
    47    19    20 1   
    48    19    46 1   
    49    19    47 1   
    50    20    21 1   
    51    20    48 1   
    52    20    49 1   
    53    21    50 1   
    54    21    51 1   
    55    24    25 1   
    56    24    52 1   
    57    24    53 1   
    58    25    54 1   
    59    25    55 1   
@<TRIPOS>SUBSTRUCTURE
     1 D9Y         1 TEMP              0 ****  ****    0 ROOT
