@<TRIPOS>MOLECULE
D9Y
   56    59     1     0     0
SMALL
No Charge or Current Charge


@<TRIPOS>ATOM
      1 O3          -5.5950     2.6750     7.9000 oh         1 D9Y      -0.632000
      2 C4          -3.2740     9.0360     7.2830 c6         1 D9Y      -0.091400
      3 C5          -2.8340    10.5210     7.2550 c6         1 D9Y      -0.071400
      4 C6          -2.8850     5.9670     8.3870 c          1 D9Y       0.641100
      5 N1          -3.2600     4.6880     8.0760 ns         1 D9Y      -0.520900
      6 C7          -3.6600     3.6540     9.0590 c6         1 D9Y       0.046700
      7 C8          -2.4610     3.2520     9.9820 c5         1 D9Y       0.098300
      8 N2          -4.6170    -0.1550     8.5640 n3         1 D9Y      -0.727600
      9 C9          -2.9170     2.7880    11.4080 c5         1 D9Y       0.131600
     10 C10         -2.7630     1.0060     9.9430 c5         1 D9Y       0.325300
     11 C11         -4.1930     1.1210     9.2610 c6         1 D9Y       0.157500
     12 C12         -4.2500     2.3970     8.3390 c6         1 D9Y       0.178300
     13 C13         -4.7960    -1.2940     9.5060 c6         1 D9Y       0.180800
     14 C14         -5.5300    -2.4890     8.8320 c6         1 D9Y      -0.075900
     15 C15         -5.4310    -2.4710     7.2820 c6         1 D9Y      -0.065400
     16 O           -2.9080     6.4180     9.5190 o          1 D9Y      -0.634100
     17 N           -2.4860     6.6810     7.2920 ns         1 D9Y      -0.509900
     18 C3          -2.0490     8.0820     7.3060 c6         1 D9Y       0.116700
     19 C2          -1.1390     8.3680     6.0830 c6         1 D9Y      -0.091400
     20 C1          -0.6850     9.8490     6.0490 c6         1 D9Y      -0.071400
     21 C           -1.9030    10.8050     6.0510 c6         1 D9Y      -0.077400
     22 O1          -2.8380     1.3390    11.3440 os         1 D9Y      -0.465000
     23 O2          -1.8720     2.0350     9.4690 os         1 D9Y      -0.448000
     24 C17         -3.7600    -0.5200     7.3890 c6         1 D9Y       0.180800
     25 C16         -4.0490    -1.9450     6.8350 c6         1 D9Y      -0.075900
     26 H1          -5.5460     3.4750     7.3350 ho         1 D9Y       0.446000
     27 H3          -3.8990     8.8200     6.4060 hc         1 D9Y       0.044700
     28 H4          -2.3160    10.7720     8.1910 hc         1 D9Y       0.043950
     29 H5          -3.7180    11.1710     7.2040 hc         1 D9Y       0.043950
     30 H6          -3.1710     4.4170     7.1050 hn         1 D9Y       0.301500
     31 H7          -4.4460     4.0950     9.6930 h1         1 D9Y       0.105700
     32 H8          -1.7110     4.0530    10.0310 h1         1 D9Y       0.096700
     33 H10         -2.2450     3.1510    12.1960 h1         1 D9Y       0.064700
     34 H11         -3.9430     3.0980    11.6500 h1         1 D9Y       0.064700
     35 H12         -2.3170     0.0130     9.8070 h2         1 D9Y       0.102700
     36 H13         -4.9120     1.3090    10.0720 h1         1 D9Y       0.089700
     37 H14         -3.6140     2.2000     7.4640 h1         1 D9Y       0.036700
     38 H15         -5.3670    -0.9850    10.3940 h1         1 D9Y       0.031700
     39 H16         -3.8150    -1.6420     9.8630 h1         1 D9Y       0.031700
     40 H17         -6.5890    -2.4810     9.1210 hc         1 D9Y       0.040450
     41 H18         -5.1150    -3.4280     9.2230 hc         1 D9Y       0.040450
     42 H19         -6.2170    -1.8240     6.8690 hc         1 D9Y       0.044200
     43 H20         -5.6100    -3.4770     6.8790 hc         1 D9Y       0.044200
     44 H21         -2.5080     6.2030     6.4020 hn         1 D9Y       0.299500
     45 H22         -1.4720     8.2600     8.2270 h1         1 D9Y       0.082700
     46 H23         -1.6720     8.1260     5.1530 hc         1 D9Y       0.044700
     47 H24         -0.2560     7.7150     6.1170 hc         1 D9Y       0.044700
     48 H25         -0.0700    10.0300     5.1570 hc         1 D9Y       0.043950
     49 H26         -0.0460    10.0610     6.9180 hc         1 D9Y       0.043950
     50 H27         -2.4650    10.6910     5.1130 hc         1 D9Y       0.040700
     51 H28         -1.5590    11.8480     6.0830 hc         1 D9Y       0.040700
     52 H29         -2.6910    -0.4590     7.6390 h1         1 D9Y       0.031700
     53 H30         -3.9350     0.2000     6.5770 h1         1 D9Y       0.031700
     54 H31         -3.2710    -2.6350     7.1910 hc         1 D9Y       0.040450
     55 H32         -3.9770    -1.9410     5.7390 hc         1 D9Y       0.040450
     56 H2          -3.9030     8.8580     8.1650 hc         1 D9Y       0.044700
@<TRIPOS>BOND
     1     1    12 1   
     2     1    26 1   
     3     2     3 1   
     4     2    18 1   
     5     2    27 1   
     6     2    56 1   
     7     3    21 1   
     8     3    28 1   
     9     3    29 1   
    10     4     5 1   
    11     4    16 2   
    12     4    17 1   
    13     5     6 1   
    14     5    30 1   
    15     6     7 1   
    16     6    12 1   
    17     6    31 1   
    18     7     9 1   
    19     7    23 1   
    20     7    32 1   
    21     8    11 1   
    22     8    13 1   
    23     8    24 1   
    24     9    22 1   
    25     9    33 1   
    26     9    34 1   
    27    10    11 1   
    28    10    22 1   
    29    10    23 1   
    30    10    35 1   
    31    11    12 1   
    32    11    36 1   
    33    12    37 1   
    34    13    14 1   
    35    13    38 1   
    36    13    39 1   
    37    14    15 1   
    38    14    40 1   
    39    14    41 1   
    40    15    25 1   
    41    15    42 1   
    42    15    43 1   
    43    17    18 1   
    44    17    44 1   
    45    18    19 1   
    46    18    45 1   
    47    19    20 1   
    48    19    46 1   
    49    19    47 1   
    50    20    21 1   
    51    20    48 1   
    52    20    49 1   
    53    21    50 1   
    54    21    51 1   
    55    24    25 1   
    56    24    52 1   
    57    24    53 1   
    58    25    54 1   
    59    25    55 1   
@<TRIPOS>SUBSTRUCTURE
     1 D9Y         1 TEMP              0 ****  ****    0 ROOT
