@<TRIPOS>MOLECULE
D9Z
   22    23     1     0     0
SMALL
abcg2


@<TRIPOS>ATOM
      1 O2          -3.9390    -0.4140    -1.6850 o          1 D9Z      -0.517000
      2 S1          -3.4580    -0.0540    -0.3700 sy         1 D9Z       1.126200
      3 O1          -3.5020     1.3120     0.1110 o          1 D9Z      -0.517000
      4 N3          -4.2200    -0.9960     0.7070 n8         1 D9Z      -1.022100
      5 C8          -1.7330    -0.4790    -0.3210 cc         1 D9Z       0.093300
      6 S2          -0.5350     0.6600     0.1040 ss         1 D9Z      -0.033800
      7 N2          -1.2910    -1.6550    -0.6110 nd         1 D9Z      -0.226000
      8 N1           0.0350    -1.7300    -0.5200 nd         1 D9Z      -0.350000
      9 C7           0.6070    -0.6110    -0.1620 cc         1 D9Z       0.460900
     10 C1           2.0640    -0.5200    -0.0450 ca         1 D9Z      -0.142500
     11 C6           2.8100    -1.6410    -0.4330 ca         1 D9Z      -0.053000
     12 C2           2.7730     0.5900     0.4220 ca         1 D9Z       0.132000
     13 C3           4.1570     0.5850     0.5030 ca         1 D9Z      -0.108000
     14 C4           4.8670    -0.5370     0.1140 ca         1 D9Z      -0.077000
     15 C5           4.1880    -1.6540    -0.3570 ca         1 D9Z      -0.115000
     16 CL1          1.9650     2.0330     0.9260 cl         1 D9Z      -0.181000
     17 HN3         -3.9910    -0.8230     1.6790 hn         1 D9Z       0.497000
     18 HN3A        -4.2570    -1.9810     0.4720 hn         1 D9Z       0.497000
     19 H6           2.2890    -2.5120    -0.8030 ha         1 D9Z       0.148000
     20 H3           4.6760     1.4600     0.8690 ha         1 D9Z       0.135000
     21 H4           5.9460    -0.5350     0.1770 ha         1 D9Z       0.125000
     22 H5           4.7320    -2.5350    -0.6690 ha         1 D9Z       0.127000
@<TRIPOS>BOND
     1     1     2 2   
     2     2     3 2   
     3     2     4 1   
     4     2     5 1   
     5     4    17 1   
     6     4    18 1   
     7     5     6 1   
     8     5     7 2   
     9     6     9 1   
    10     7     8 1   
    11     8     9 2   
    12     9    10 1   
    13    10    11 ar  
    14    10    12 ar  
    15    11    15 ar  
    16    11    19 1   
    17    12    13 ar  
    18    12    16 1   
    19    13    14 ar  
    20    13    20 1   
    21    14    15 ar  
    22    14    21 1   
    23    15    22 1   
@<TRIPOS>SUBSTRUCTURE
     1 D9Z         1 TEMP              0 ****  ****    0 ROOT
