@<TRIPOS>MOLECULE
D9Z
   22    23     1     0     0
SMALL
No Charge or Current Charge


@<TRIPOS>ATOM
      1 O2          -4.1840    -1.7240    -0.9360 o          1 D9Z      -0.517000
      2 S1          -3.4410    -0.5310    -0.5280 sy         1 D9Z       1.126200
      3 O1          -3.6120     0.7570    -1.2020 o          1 D9Z      -0.517000
      4 N3          -3.9920    -0.2410     0.9920 n8         1 D9Z      -1.022100
      5 C8          -1.6760    -0.9080    -0.3110 cc         1 D9Z       0.093300
      6 S2          -0.4790     0.3570    -0.3080 ss         1 D9Z      -0.033800
      7 N2          -1.1910    -2.1330    -0.1370 nd         1 D9Z      -0.226000
      8 N1           0.1850    -2.1290     0.0040 nd         1 D9Z      -0.350000
      9 C7           0.6900    -0.9010    -0.0120 cc         1 D9Z       0.460900
     10 C1           2.1330    -0.6420    -0.0050 ca         1 D9Z      -0.142500
     11 C6           2.9840    -1.4620    -0.7820 ca         1 D9Z      -0.053000
     12 C2           2.7150     0.3550     0.8160 ca         1 D9Z       0.132000
     13 C3           4.1070     0.5520     0.8140 ca         1 D9Z      -0.108000
     14 C4           4.9370    -0.2460     0.0120 ca         1 D9Z      -0.077000
     15 C5           4.3750    -1.2580    -0.7810 ca         1 D9Z      -0.115000
     16 Cl1          1.7490     1.3430     1.9120 cl         1 D9Z      -0.181000
     17 HN3         -4.7370    -0.9330     1.0550 hn         1 D9Z       0.497000
     18 HN3A        -4.5180     0.6180     0.8400 hn         1 D9Z       0.497000
     19 H6           2.5660    -2.2530    -1.4030 ha         1 D9Z       0.148000
     20 H3           4.5440     1.3200     1.4470 ha         1 D9Z       0.135000
     21 H4           6.0140    -0.0900     0.0150 ha         1 D9Z       0.125000
     22 H5           5.0160    -1.8880    -1.3940 ha         1 D9Z       0.127000
@<TRIPOS>BOND
     1     1     2 2   
     2     2     3 2   
     3     2     4 1   
     4     2     5 1   
     5     4    17 1   
     6     4    18 1   
     7     5     6 1   
     8     5     7 2   
     9     6     9 1   
    10     7     8 1   
    11     8     9 2   
    12     9    10 1   
    13    10    11 ar  
    14    10    12 ar  
    15    11    15 ar  
    16    11    19 1   
    17    12    13 ar  
    18    12    16 1   
    19    13    14 ar  
    20    13    20 1   
    21    14    15 ar  
    22    14    21 1   
    23    15    22 1   
@<TRIPOS>SUBSTRUCTURE
     1 D9Z         1 TEMP              0 ****  ****    0 ROOT
