@<TRIPOS>MOLECULE
DA1
   15    15     1     0     0
SMALL
abcg2


@<TRIPOS>ATOM
      1 N1          -0.7140    -1.1370     0.0930 nb         1 DA1      -0.708000
      2 C7          -1.3630     0.0180     0.1110 ca         1 DA1       0.539900
      3 N2          -2.7350    -0.0210     0.2590 nv         1 DA1      -1.030900
      4 C2          -0.6720     1.2360     0.0420 ca         1 DA1      -0.184000
      5 C3           0.7020     1.2240    -0.0520 ca         1 DA1      -0.096000
      6 C5           1.3950     0.0080    -0.0710 ca         1 DA1       0.174000
      7 N3           2.7770    -0.0500    -0.2250 nv         1 DA1      -1.045000
      8 C4           0.6140    -1.1390     0.0080 ca         1 DA1       0.324900
      9 HN21        -3.2320     0.7740    -0.1100 hn         1 DA1       0.452500
     10 HN22        -3.1560    -0.8900    -0.0310 hn         1 DA1       0.452500
     11 H2          -1.2110     2.1760     0.0620 ha         1 DA1       0.120000
     12 H3           1.2450     2.1600    -0.1130 ha         1 DA1       0.116000
     13 HN31         3.2630     0.7540     0.1440 hn         1 DA1       0.433500
     14 HN32         3.1940    -0.8940     0.1370 hn         1 DA1       0.433500
     15 H4           1.0900    -2.1160    -0.0010 h4         1 DA1       0.016100
@<TRIPOS>BOND
     1     1     2 ar  
     2     1     8 ar  
     3     2     3 1   
     4     2     4 ar  
     5     3     9 1   
     6     3    10 1   
     7     4     5 ar  
     8     4    11 1   
     9     5     6 ar  
    10     5    12 1   
    11     6     7 1   
    12     6     8 ar  
    13     7    13 1   
    14     7    14 1   
    15     8    15 1   
@<TRIPOS>SUBSTRUCTURE
     1 DA1         1 TEMP              0 ****  ****    0 ROOT
