@<TRIPOS>MOLECULE
DA1
   15    15     1     0     0
SMALL
No Charge or Current Charge


@<TRIPOS>ATOM
      1 N1          -0.7960    -1.1460     0.1060 nb         1 DA1      -0.708000
      2 C7          -1.3710     0.0510     0.1050 ca         1 DA1       0.539900
      3 N2          -2.7060    -0.0420     0.1490 nv         1 DA1      -1.030900
      4 C2          -0.6810     1.2700     0.0550 ca         1 DA1      -0.184000
      5 C3           0.7260     1.2500     0.0070 ca         1 DA1      -0.096000
      6 C5           1.3780     0.0040     0.0080 ca         1 DA1       0.174000
      7 N3           2.7650    -0.0410    -0.0400 nv         1 DA1      -1.045000
      8 C4           0.5620    -1.1680     0.0590 ca         1 DA1       0.324900
      9 HN21        -3.2510     0.7640    -0.1390 hn         1 DA1       0.452500
     10 HN22        -3.0990    -0.9580    -0.0360 hn         1 DA1       0.452500
     11 H2          -1.2220     2.2120     0.0570 ha         1 DA1       0.120000
     12 H3           1.2900     2.1790    -0.0310 ha         1 DA1       0.116000
     13 HN31         3.3170     0.8170    -0.0710 hn         1 DA1       0.433500
     14 HN32         3.2640    -0.9320    -0.0360 hn         1 DA1       0.433500
     15 H4           1.0210    -2.1570     0.0610 h4         1 DA1       0.016100
@<TRIPOS>BOND
     1     1     2 ar  
     2     1     8 ar  
     3     2     3 1   
     4     2     4 ar  
     5     3     9 1   
     6     3    10 1   
     7     4     5 ar  
     8     4    11 1   
     9     5     6 ar  
    10     5    12 1   
    11     6     7 1   
    12     6     8 ar  
    13     7    13 1   
    14     7    14 1   
    15     8    15 1   
@<TRIPOS>SUBSTRUCTURE
     1 DA1         1 TEMP              0 ****  ****    0 ROOT
