@<TRIPOS>MOLECULE
DA2
   31    30     1     0     0
SMALL
abcg2


@<TRIPOS>ATOM
      1 C1           8.3630    10.9360    30.1470 c3         1 DA2       0.194600
      2 C2           6.4630    12.3590    29.6890 c3         1 DA2       0.194600
      3 N            7.6700    16.0120    34.9150 n8         1 DA2      -1.001200
      4 CA           8.1490    16.0710    33.5410 c3         1 DA2       0.012500
      5 CB           8.1480    14.6690    32.9250 c3         1 DA2      -0.055400
      6 CG           9.0250    13.6700    33.6690 c3         1 DA2      -0.103400
      7 CD           9.1670    12.3200    32.9720 c3         1 DA2       0.201800
      8 NE           7.9410    11.5360    32.9150 nu         1 DA2      -0.883400
      9 CZ           6.9550    11.7550    31.9770 c2         1 DA2       0.803100
     10 NH2          5.7330    11.8160    32.3640 n2         1 DA2      -0.889100
     11 NH1          7.4090    11.8950    30.6760 nh         1 DA2      -0.776600
     12 C            7.3750    17.0380    32.6050 c          1 DA2       0.694000
     13 O            6.2640    17.4490    32.9950 o          1 DA2      -0.736000
     14 OXT          7.9310    17.3030    31.5190 o          1 DA2      -0.736000
     15 HC11         9.0240    10.5650    30.9240 h1         1 DA2       0.032533
     16 HC12         7.8560    10.0740    29.6980 h1         1 DA2       0.032533
     17 HC13         8.9750    11.4060    29.3760 h1         1 DA2       0.032533
     18 HC21         5.9200    13.2310    30.0530 h1         1 DA2       0.032533
     19 HC22         7.0080    12.6590    28.7950 h1         1 DA2       0.032533
     20 HC23         5.7340    11.5940    29.3930 h1         1 DA2       0.032533
     21 HCA          9.1910    16.4120    33.5740 h1         1 DA2       0.032700
     22 HCB1         7.1140    14.3060    32.8870 hc         1 DA2       0.046200
     23 HCB2         8.4860    14.7450    31.8890 hc         1 DA2       0.046200
     24 HCG1        10.0300    14.0920    33.7820 hc         1 DA2       0.039700
     25 HCG2         8.6480    13.5150    34.6820 hc         1 DA2       0.039700
     26 HCD1         9.5490    12.4670    31.9620 h1         1 DA2       0.039700
     27 HCD2         9.9150    11.7220    33.4980 h1         1 DA2       0.039700
     28 HNE          7.5300    11.3920    33.8270 hn         1 DA2       0.465000
     29 HNH2         5.0910    11.7980    31.5810 hn         1 DA2       0.375400
     30 HN1          7.7540    16.9340    35.3270 hn         1 DA2       0.381000
     31 HN2          6.6700    15.8440    34.8850 hn         1 DA2       0.381000
@<TRIPOS>BOND
     1     1    11 1   
     2     1    15 1   
     3     1    16 1   
     4     1    17 1   
     5     2    11 1   
     6     2    18 1   
     7     2    19 1   
     8     2    20 1   
     9     3     4 1   
    10     3    30 1   
    11     3    31 1   
    12     4     5 1   
    13     4    12 1   
    14     4    21 1   
    15     5     6 1   
    16     5    22 1   
    17     5    23 1   
    18     6     7 1   
    19     6    24 1   
    20     6    25 1   
    21     7     8 1   
    22     7    26 1   
    23     7    27 1   
    24     8     9 1   
    25     8    28 1   
    26     9    10 2   
    27     9    11 1   
    28    10    29 1   
    29    12    13 1   
    30    12    14 1   
@<TRIPOS>SUBSTRUCTURE
     1 DA2         1 TEMP              0 ****  ****    0 ROOT
