@<TRIPOS>MOLECULE
DA2
   31    30     1     0     0
SMALL
No Charge or Current Charge


@<TRIPOS>ATOM
      1 C1           8.1320    10.6360    30.0710 c3         1 DA2       0.194600
      2 C2           6.7270    12.7260    29.8410 c3         1 DA2       0.194600
      3 N            7.4130    16.0290    34.9230 n8         1 DA2      -1.001200
      4 CA           8.0460    16.1070    33.5550 c3         1 DA2       0.012500
      5 CB           8.1190    14.7030    32.8930 c3         1 DA2      -0.055400
      6 CG           9.0070    13.6790    33.6480 c3         1 DA2      -0.103400
      7 CD           9.2290    12.3460    32.8980 c3         1 DA2       0.201800
      8 NE           8.0270    11.5010    32.9000 nu         1 DA2      -0.883400
      9 CZ           7.0120    11.6420    32.0330 c2         1 DA2       0.803100
     10 NH2          5.8640    11.3050    32.3990 n2         1 DA2      -0.889100
     11 NH1          7.3130    11.6880    30.7120 nh         1 DA2      -0.776600
     12 C            7.4040    17.1510    32.5480 c          1 DA2       0.694000
     13 O            6.1870    17.1580    32.4120 o          1 DA2      -0.736000
     14 OXT          8.1360    17.9880    32.0370 o          1 DA2      -0.736000
     15 HC11         9.1330    10.5980    30.5190 h1         1 DA2       0.032533
     16 HC12         7.6570     9.6560    30.2040 h1         1 DA2       0.032533
     17 HC13         8.2500    10.8170    28.9940 h1         1 DA2       0.032533
     18 HC21         6.9800    13.7240    30.2200 h1         1 DA2       0.032533
     19 HC22         7.1010    12.6480    28.8110 h1         1 DA2       0.032533
     20 HC23         5.6330    12.6320    29.8160 h1         1 DA2       0.032533
     21 HCA          9.0820    16.4390    33.7130 h1         1 DA2       0.032700
     22 HCB1         7.1030    14.3050    32.7820 hc         1 DA2       0.046200
     23 HCB2         8.5190    14.8220    31.8780 hc         1 DA2       0.046200
     24 HCG1         9.9910    14.1360    33.8140 hc         1 DA2       0.039700
     25 HCG2         8.5880    13.4740    34.6410 hc         1 DA2       0.039700
     26 HCD1         9.5730    12.5470    31.8740 h1         1 DA2       0.039700
     27 HCD2        10.0370    11.8030    33.4080 h1         1 DA2       0.039700
     28 HNE          7.6770    11.2330    33.8100 hn         1 DA2       0.465000
     29 HNH2         5.3120    11.2830    31.5360 hn         1 DA2       0.375400
     30 HN1          7.4270    16.9640    35.3500 hn         1 DA2       0.381000
     31 HN2          6.4100    15.8460    34.8010 hn         1 DA2       0.381000
@<TRIPOS>BOND
     1     1    11 1   
     2     1    15 1   
     3     1    16 1   
     4     1    17 1   
     5     2    11 1   
     6     2    18 1   
     7     2    19 1   
     8     2    20 1   
     9     3     4 1   
    10     3    30 1   
    11     3    31 1   
    12     4     5 1   
    13     4    12 1   
    14     4    21 1   
    15     5     6 1   
    16     5    22 1   
    17     5    23 1   
    18     6     7 1   
    19     6    24 1   
    20     6    25 1   
    21     7     8 1   
    22     7    26 1   
    23     7    27 1   
    24     8     9 1   
    25     8    28 1   
    26     9    10 2   
    27     9    11 1   
    28    10    29 1   
    29    12    13 1   
    30    12    14 1   
@<TRIPOS>SUBSTRUCTURE
     1 DA2         1 TEMP              0 ****  ****    0 ROOT
