@<TRIPOS>MOLECULE
DA3
   22    22     1     0     0
SMALL
bcc


@<TRIPOS>ATOM
      1 N1           0.0180     1.6560     2.8630 n8         1 DA3      -0.885800
      2 C2          -0.3250     0.3590     2.3030 c3         1 DA3       0.026500
      3 C1          -0.1500    -0.7570     3.3570 c          1 DA3       0.933600
      4 O1           0.6130    -0.5270     4.3160 o          1 DA3      -0.849800
      5 O2          -0.7660    -1.8190     3.1350 o          1 DA3      -0.849800
      6 O3          -1.0300     0.9780    -0.5490 os         1 DA3      -0.205300
      7 O4           1.2110    -1.0060    -3.8790 o          1 DA3      -0.823300
      8 N2          -1.2000     0.2370    -1.6900 n2         1 DA3      -0.379200
      9 C3           0.4800    -0.0420     1.0550 c3         1 DA3      -0.106400
     10 C4           0.3540     0.9050    -0.1260 c5         1 DA3       0.088100
     11 C5           1.0830     0.4070    -1.3700 c5         1 DA3      -0.157700
     12 C6          -0.0740    -0.1060    -2.1670 ce         1 DA3       0.242300
     13 C7           0.0460    -0.8980    -3.4540 c          1 DA3       0.858300
     14 O5          -1.0000    -1.3470    -3.9480 o          1 DA3      -0.823300
     15 HN11         0.0070     2.3730     2.1490 hn         1 DA3       0.313800
     16 HN12         0.9600     1.6190     3.2290 hn         1 DA3       0.313800
     17 H2          -1.3840     0.3830     2.0250 h1         1 DA3       0.063700
     18 H31          1.5420    -0.1040     1.3190 hc         1 DA3       0.048200
     19 H32          0.1790    -1.0450     0.7350 hc         1 DA3       0.048200
     20 H4           0.6570     1.9180     0.1480 h1         1 DA3       0.031700
     21 H51          1.6010     1.2000    -1.9150 hc         1 DA3       0.056200
     22 H52          1.8190    -0.3680    -1.1530 hc         1 DA3       0.056200
@<TRIPOS>BOND
     1     1     2 1   
     2     1    15 1   
     3     1    16 1   
     4     2     3 1   
     5     2     9 1   
     6     2    17 1   
     7     3     4 1   
     8     3     5 1   
     9     6     8 1   
    10     6    10 1   
    11     7    13 1   
    12     8    12 2   
    13     9    10 1   
    14     9    18 1   
    15     9    19 1   
    16    10    11 1   
    17    10    20 1   
    18    11    12 1   
    19    11    21 1   
    20    11    22 1   
    21    12    13 1   
    22    13    14 1   
@<TRIPOS>SUBSTRUCTURE
     1 DA3         1 TEMP              0 ****  ****    0 ROOT
