@<TRIPOS>MOLECULE
DA3
   22    22     1     0     0
SMALL
No Charge or Current Charge


@<TRIPOS>ATOM
      1 N1           0.1980     1.6370     2.9150 n8         1 DA3      -0.996200
      2 C2          -0.2900     0.3350     2.3250 c3         1 DA3       0.026500
      3 C1          -0.2720    -0.9260     3.2900 c          1 DA3       0.723000
      4 O1           0.8020    -1.3030     3.7460 o          1 DA3      -0.744500
      5 O2          -1.3410    -1.4400     3.5970 o          1 DA3      -0.744500
      6 O3          -1.1800     0.9690    -0.5500 os         1 DA3      -0.327000
      7 O4           1.4200    -1.2400    -3.5860 o          1 DA3      -0.718000
      8 N2          -1.2960     0.1720    -1.7040 n2         1 DA3      -0.280700
      9 C3           0.4690     0.0280     1.0040 c3         1 DA3      -0.106400
     10 C4           0.2180     1.0230    -0.1630 c5         1 DA3       0.111300
     11 C5           0.9930     0.6690    -1.4650 c5         1 DA3      -0.157700
     12 C6          -0.1210    -0.0640    -2.1920 ce         1 DA3       0.242300
     13 C7           0.2450    -1.0950    -3.2640 c          1 DA3       0.647700
     14 O5          -0.6510    -1.7470    -3.7920 o          1 DA3      -0.718000
     15 HN11         0.2560     2.3420     2.1720 hn         1 DA3       0.369000
     16 HN12         1.1700     1.5150     3.2230 hn         1 DA3       0.369000
     17 H2          -1.3470     0.4810     2.0600 h1         1 DA3       0.063700
     18 H31          1.5430    -0.0210     1.2180 hc         1 DA3       0.048200
     19 H32          0.1870    -0.9800     0.6750 hc         1 DA3       0.048200
     20 H4           0.4590     2.0400     0.1760 h1         1 DA3       0.031700
     21 H51          1.2970     1.5690    -2.0110 hc         1 DA3       0.056200
     22 H52          1.8820     0.0530    -1.2890 hc         1 DA3       0.056200
@<TRIPOS>BOND
     1     1     2 1   
     2     1    15 1   
     3     1    16 1   
     4     2     3 1   
     5     2     9 1   
     6     2    17 1   
     7     3     4 1   
     8     3     5 1   
     9     6     8 1   
    10     6    10 1   
    11     7    13 1   
    12     8    12 2   
    13     9    10 1   
    14     9    18 1   
    15     9    19 1   
    16    10    11 1   
    17    10    20 1   
    18    11    12 1   
    19    11    21 1   
    20    11    22 1   
    21    12    13 1   
    22    13    14 1   
@<TRIPOS>SUBSTRUCTURE
     1 DA3         1 TEMP              0 ****  ****    0 ROOT
