@<TRIPOS>MOLECULE
DA4
   19    19     1     0     0
SMALL
abcg2


@<TRIPOS>ATOM
      1 N1          -2.1360     0.6940    -1.5000 n8         1 DA4      -1.006100
      2 S2          -1.8910     0.3600     0.0970 sy         1 DA4       1.128600
      3 O3          -1.8650     1.6450     0.7780 o          1 DA4      -0.543500
      4 O4          -2.7820    -0.6770     0.5970 o          1 DA4      -0.543500
      5 C5          -0.2510    -0.3130     0.0570 ca         1 DA4      -0.265500
      6 C6           0.8230     0.5620     0.0640 ca         1 DA4       0.015000
      7 C7           2.1180     0.0470     0.0280 ca         1 DA4       0.012000
      8 C8           2.3080    -1.3380    -0.0200 ca         1 DA4      -0.038000
      9 C9           1.2200    -2.1930    -0.0250 ca         1 DA4      -0.132000
     10 C10         -0.0720    -1.6880     0.0190 ca         1 DA4      -0.015000
     11 C11          3.2390     0.9280     0.0480 cg         1 DA4      -0.139000
     12 C12          4.1900     1.6650     0.0640 c1         1 DA4      -0.208000
     13 HN1         -2.3580    -0.1330    -2.0450 hn         1 DA4       0.474500
     14 HN1A        -2.8520     1.4040    -1.6270 hn         1 DA4       0.474500
     15 H6           0.6730     1.6330     0.1000 ha         1 DA4       0.145000
     16 H8           3.3120    -1.7370    -0.0500 ha         1 DA4       0.124000
     17 H9           1.3750    -3.2630    -0.0590 ha         1 DA4       0.122000
     18 H10         -0.9170    -2.3620     0.0240 ha         1 DA4       0.135000
     19 H12          5.0350     2.3150     0.0790 ha         1 DA4       0.260000
@<TRIPOS>BOND
     1     1     2 1   
     2     1    13 1   
     3     1    14 1   
     4     2     3 2   
     5     2     4 2   
     6     2     5 1   
     7     5     6 ar  
     8     5    10 ar  
     9     6     7 ar  
    10     6    15 1   
    11     7     8 ar  
    12     7    11 1   
    13     8     9 ar  
    14     8    16 1   
    15     9    10 ar  
    16     9    17 1   
    17    10    18 1   
    18    11    12 3   
    19    12    19 1   
@<TRIPOS>SUBSTRUCTURE
     1 DA4         1 TEMP              0 ****  ****    0 ROOT
