@<TRIPOS>MOLECULE
DA4
   19    19     1     0     0
SMALL
No Charge or Current Charge


@<TRIPOS>ATOM
      1 N1          -2.2270     0.5330    -1.5680 n8         1 DA4      -1.006100
      2 S2          -1.9090     0.3330     0.0180 sy         1 DA4       1.128600
      3 O3          -1.9330     1.6950     0.5460 o          1 DA4      -0.543500
      4 O4          -2.8730    -0.6830     0.4360 o          1 DA4      -0.543500
      5 C5          -0.2390    -0.3260     0.0170 ca         1 DA4      -0.265500
      6 C6           0.8640     0.5540     0.0510 ca         1 DA4       0.015000
      7 C7           2.1760     0.0430     0.0490 ca         1 DA4       0.012000
      8 C8           2.3860    -1.3480     0.0130 ca         1 DA4      -0.038000
      9 C9           1.2880    -2.2250    -0.0240 ca         1 DA4      -0.132000
     10 C10         -0.0230    -1.7190    -0.0230 ca         1 DA4      -0.015000
     11 C11          3.2970     0.9380     0.0850 cg         1 DA4      -0.139000
     12 C12          4.2420     1.7030     0.1170 c1         1 DA4      -0.208000
     13 HN1         -3.0970     0.0110    -1.6460 hn         1 DA4       0.474500
     14 HN1A        -2.5570     1.4960    -1.5690 hn         1 DA4       0.474500
     15 H6           0.7080     1.6310     0.0770 ha         1 DA4       0.145000
     16 H8           3.3970    -1.7490     0.0110 ha         1 DA4       0.124000
     17 H9           1.4540    -3.3000    -0.0540 ha         1 DA4       0.122000
     18 H10         -0.8650    -2.4100    -0.0530 ha         1 DA4       0.135000
     19 H12          5.0790     2.3720     0.1460 ha         1 DA4       0.260000
@<TRIPOS>BOND
     1     1     2 1   
     2     1    13 1   
     3     1    14 1   
     4     2     3 2   
     5     2     4 2   
     6     2     5 1   
     7     5     6 ar  
     8     5    10 ar  
     9     6     7 ar  
    10     6    15 1   
    11     7     8 ar  
    12     7    11 1   
    13     8     9 ar  
    14     8    16 1   
    15     9    10 ar  
    16     9    17 1   
    17    10    18 1   
    18    11    12 3   
    19    12    19 1   
@<TRIPOS>SUBSTRUCTURE
     1 DA4         1 TEMP              0 ****  ****    0 ROOT
