@<TRIPOS>MOLECULE
DA5
   45    47     1     0     0
SMALL
No Charge or Current Charge


@<TRIPOS>ATOM
      1 C1          -1.1390    -3.8240     0.8820 ca         1 DA5      -0.116000
      2 C2           0.1600    -4.1450     1.2890 ca         1 DA5      -0.026000
      3 C3           1.1820    -3.1890     1.2220 ca         1 DA5       0.008000
      4 C4           0.9240    -1.8780     0.7480 ca         1 DA5      -0.158600
      5 C5          -2.2710     1.3920    -0.9280 ca         1 DA5      -0.066900
      6 C6          -3.5750     1.7660    -1.2960 ca         1 DA5       0.016000
      7 C7          -4.6140     0.8260    -1.2370 ca         1 DA5      -0.010000
      8 C8          -4.3530    -0.4890    -0.8160 ca         1 DA5      -0.138000
      9 C9          -2.7480    -2.1950    -0.0220 ca         1 DA5       0.216000
     10 N9          -3.8240    -3.2270    -0.0080 nz         1 DA5      -1.021000
     11 N10         -0.6960    -0.2750    -0.1440 na         1 DA5      -0.059700
     12 C11         -1.4380    -2.5330     0.3940 ca         1 DA5      -0.053000
     13 C12         -0.4070    -1.5590     0.3320 ca         1 DA5       0.043000
     14 C13         -3.0410    -0.8800    -0.4500 ca         1 DA5      -0.044000
     15 C14         -1.9980     0.0730    -0.5020 ca         1 DA5       0.099700
     16 Br          -0.8810     2.7180    -1.0200 br         1 DA5       0.064900
     17 CD1          2.0510    -0.8470     0.6860 c          1 DA5       0.608700
     18 OD1          1.8830     0.2750     0.2230 o          1 DA5      -0.622100
     19 ND1          3.2870    -1.2180     1.1720 ns         1 DA5      -0.425900
     20 CD2          4.4810    -0.3570     1.1550 c3         1 DA5       0.081000
     21 CD3          5.0870    -0.1970    -0.2620 c3         1 DA5       0.152800
     22 ND2          6.3770     0.5430    -0.3130 n3         1 DA5      -0.710600
     23 CD7          7.0180     0.4520    -1.6460 c3         1 DA5       0.143100
     24 CD8          6.2800     1.9470     0.1590 c3         1 DA5       0.143100
     25 H1          -1.9020    -4.5930     0.9670 ha         1 DA5       0.133000
     26 H2           0.3800    -5.1440     1.6630 ha         1 DA5       0.177000
     27 H3           2.1720    -3.4980     1.5460 ha         1 DA5       0.167000
     28 H6          -3.7820     2.7830    -1.6220 ha         1 DA5       0.189000
     29 H7          -5.6250     1.1210    -1.5160 ha         1 DA5       0.177000
     30 H8          -5.1880    -1.1820    -0.7700 ha         1 DA5       0.131000
     31 HN91        -4.3300    -3.3160     0.8860 hn         1 DA5       0.536000
     32 HN92        -4.5270    -3.0780    -0.7440 hn         1 DA5       0.536000
     33 HN93        -3.4850    -4.1620    -0.2750 hn         1 DA5       0.536000
     34 H10          0.0610     0.4030    -0.2160 hn         1 DA5       0.461000
     35 HND1         3.3770    -2.1470     1.5620 hn         1 DA5       0.330500
     36 HD21         5.2390    -0.7930     1.8190 h1         1 DA5       0.086200
     37 HD22         4.2090     0.6280     1.5570 h1         1 DA5       0.086200
     38 HD31         4.3490     0.2990    -0.9070 h1         1 DA5       0.035700
     39 HD32         5.2370    -1.2060    -0.6670 h1         1 DA5       0.035700
     40 HD71         8.0060     0.9330    -1.6370 h1         1 DA5       0.043200
     41 HD72         7.1600    -0.5970    -1.9400 h1         1 DA5       0.043200
     42 HD73         6.4040     0.9430    -2.4120 h1         1 DA5       0.043200
     43 HD81         5.9450     1.9950     1.2030 h1         1 DA5       0.043200
     44 HD82         7.2590     2.4420     0.1070 h1         1 DA5       0.043200
     45 HD83         5.5750     2.5210    -0.4570 h1         1 DA5       0.043200
@<TRIPOS>BOND
     1     1     2 ar  
     2     1    12 ar  
     3     1    25 1   
     4     2     3 ar  
     5     2    26 1   
     6     3     4 ar  
     7     3    27 1   
     8     4    13 ar  
     9     4    17 1   
    10     5     6 ar  
    11     5    15 ar  
    12     5    16 1   
    13     6     7 ar  
    14     6    28 1   
    15     7     8 ar  
    16     7    29 1   
    17     8    14 ar  
    18     8    30 1   
    19     9    10 1   
    20     9    12 ar  
    21     9    14 ar  
    22    10    31 1   
    23    10    32 1   
    24    10    33 1   
    25    11    13 1   
    26    11    15 2   
    27    11    34 1   
    28    12    13 ar  
    29    14    15 ar  
    30    17    18 2   
    31    17    19 1   
    32    19    20 1   
    33    19    35 1   
    34    20    21 1   
    35    20    36 1   
    36    20    37 1   
    37    21    22 1   
    38    21    38 1   
    39    21    39 1   
    40    22    23 1   
    41    22    24 1   
    42    23    40 1   
    43    23    41 1   
    44    23    42 1   
    45    24    43 1   
    46    24    44 1   
    47    24    45 1   
@<TRIPOS>SUBSTRUCTURE
     1 DA5         1 TEMP              0 ****  ****    0 ROOT
