@<TRIPOS>MOLECULE
DA5
   45    47     1     0     0
SMALL
abcg2


@<TRIPOS>ATOM
      1 C1          -0.9720    -3.8620    -0.0450 ca         1 DA5      -0.116000
      2 C2           0.3670    -4.0740    -0.1210 ca         1 DA5      -0.026000
      3 C3           1.2670    -2.9870    -0.1760 ca         1 DA5       0.008000
      4 C4           0.8420    -1.6870    -0.1490 ca         1 DA5      -0.158600
      5 C5          -2.7430     1.4900    -0.1340 ca         1 DA5      -0.066900
      6 C6          -4.0720     1.7870    -0.0450 ca         1 DA5       0.016000
      7 C7          -5.0370     0.7640     0.0850 ca         1 DA5      -0.010000
      8 C8          -4.6700    -0.5440     0.1130 ca         1 DA5      -0.138000
      9 C9          -2.8330    -2.2080     0.0030 ca         1 DA5       0.216000
     10 N9          -3.8090    -3.2760     0.0610 nz         1 DA5      -1.021000
     11 N10         -1.0330    -0.2030    -0.1620 na         1 DA5      -0.059700
     12 C11         -1.4820    -2.5370    -0.0490 ca         1 DA5      -0.053000
     13 C12         -0.5630    -1.4540    -0.1180 ca         1 DA5       0.043000
     14 C13         -3.3000    -0.8960     0.0140 ca         1 DA5      -0.044000
     15 C14         -2.3250     0.1360    -0.0960 ca         1 DA5       0.099700
     16 BR          -1.4840     2.8650    -0.2940 br         1 DA5       0.064900
     17 CD1          1.7790    -0.5200    -0.1740 c          1 DA5       0.608700
     18 OD1          1.3530     0.6090    -0.4440 o          1 DA5      -0.622100
     19 ND1          3.0550    -0.7460     0.1060 ns         1 DA5      -0.425900
     20 CD2          4.0500     0.3120     0.1040 c3         1 DA5       0.081000
     21 CD3          5.4420    -0.3030     0.1570 c3         1 DA5       0.152800
     22 ND2          6.4710     0.7120     0.2310 n3         1 DA5      -0.710600
     23 CD7          7.7290     0.1540     0.6810 c3         1 DA5       0.143100
     24 CD8          6.6450     1.4220    -1.0200 c3         1 DA5       0.143100
     25 H1          -1.6270    -4.7200     0.0190 ha         1 DA5       0.133000
     26 H2           0.7560    -5.0810    -0.1340 ha         1 DA5       0.177000
     27 H3           2.3200    -3.2220    -0.2500 ha         1 DA5       0.167000
     28 H6          -4.4030     2.8160    -0.0690 ha         1 DA5       0.189000
     29 H7          -6.0790     1.0360     0.1620 ha         1 DA5       0.177000
     30 H8          -5.4380    -1.2970     0.2230 ha         1 DA5       0.131000
     31 HN91        -4.0890    -3.4930     1.0250 hn         1 DA5       0.536000
     32 HN92        -4.6640    -3.0580    -0.4580 hn         1 DA5       0.536000
     33 HN93        -3.4740    -4.1510    -0.3460 hn         1 DA5       0.536000
     34 H10         -0.2600     0.4960    -0.2890 hn         1 DA5       0.461000
     35 HND1         3.3370    -1.6450     0.4620 hn         1 DA5       0.330500
     36 HD21         3.9090     0.9700     0.9650 h1         1 DA5       0.086200
     37 HD22         3.9180     0.9130    -0.7960 h1         1 DA5       0.086200
     38 HD31         5.5800    -0.9800    -0.7040 h1         1 DA5       0.035700
     39 HD32         5.5110    -0.9210     1.0570 h1         1 DA5       0.035700
     40 HD71         8.4690     0.9480     0.7900 h1         1 DA5       0.043200
     41 HD72         7.6050    -0.3190     1.6560 h1         1 DA5       0.043200
     42 HD73         8.1450    -0.5970    -0.0080 h1         1 DA5       0.043200
     43 HD81         5.7240     1.9200    -1.3220 h1         1 DA5       0.043200
     44 HD82         7.4050     2.1950    -0.8990 h1         1 DA5       0.043200
     45 HD83         6.9600     0.7660    -1.8460 h1         1 DA5       0.043200
@<TRIPOS>BOND
     1     1     2 ar  
     2     1    12 ar  
     3     1    25 1   
     4     2     3 ar  
     5     2    26 1   
     6     3     4 ar  
     7     3    27 1   
     8     4    13 ar  
     9     4    17 1   
    10     5     6 ar  
    11     5    15 ar  
    12     5    16 1   
    13     6     7 ar  
    14     6    28 1   
    15     7     8 ar  
    16     7    29 1   
    17     8    14 ar  
    18     8    30 1   
    19     9    10 1   
    20     9    12 ar  
    21     9    14 ar  
    22    10    31 1   
    23    10    32 1   
    24    10    33 1   
    25    11    13 1   
    26    11    15 2   
    27    11    34 1   
    28    12    13 ar  
    29    14    15 ar  
    30    17    18 2   
    31    17    19 1   
    32    19    20 1   
    33    19    35 1   
    34    20    21 1   
    35    20    36 1   
    36    20    37 1   
    37    21    22 1   
    38    21    38 1   
    39    21    39 1   
    40    22    23 1   
    41    22    24 1   
    42    23    40 1   
    43    23    41 1   
    44    23    42 1   
    45    24    43 1   
    46    24    44 1   
    47    24    45 1   
@<TRIPOS>SUBSTRUCTURE
     1 DA5         1 TEMP              0 ****  ****    0 ROOT
