@<TRIPOS>MOLECULE
DA6
   45    47     1     0     0
SMALL
abcg2


@<TRIPOS>ATOM
      1 C1          -0.4820    -3.9800     0.0670 ca         1 DA6      -0.114000
      2 C2          -1.8320    -3.9210     0.2040 ca         1 DA6      -0.029000
      3 C3          -2.4940    -2.6780     0.2990 ca         1 DA6       0.008000
      4 C4          -1.8220    -1.4860     0.2500 ca         1 DA6      -0.157600
      5 C5           2.2810     0.9100     0.0000 ca         1 DA6      -0.108000
      6 C6           3.6360     0.9470    -0.1480 ca         1 DA6       0.048100
      7 C7           4.4030    -0.2380    -0.2960 ca         1 DA6       0.003000
      8 C8           3.7920    -1.4510    -0.2840 ca         1 DA6      -0.137000
      9 C9           1.6670    -2.7380    -0.0770 ca         1 DA6       0.222000
     10 N9           2.3940    -3.9860    -0.1680 nz         1 DA6      -1.022000
     11 N10          0.3130    -0.4080     0.1380 na         1 DA6      -0.065700
     12 C11          0.2790    -2.7820     0.0380 ca         1 DA6      -0.062000
     13 C12         -0.4030    -1.5380     0.1420 ca         1 DA6       0.047000
     14 C13          2.3840    -1.5490    -0.1250 ca         1 DA6      -0.048000
     15 C14          1.6430    -0.3430     0.0050 ca         1 DA6       0.091700
     16 BR           4.5240     2.5870    -0.1630 br         1 DA6       0.080900
     17 CD1         -2.5050    -0.1550     0.3300 c          1 DA6       0.609700
     18 OD1         -1.8480     0.8690     0.5540 o          1 DA6      -0.631100
     19 ND1         -3.8170    -0.1210     0.1460 ns         1 DA6      -0.426900
     20 CD2         -4.5850     1.1060     0.2590 c3         1 DA6       0.083000
     21 CD3         -6.0330     0.8260    -0.1190 c3         1 DA6       0.150800
     22 ND2         -6.8740     1.9880     0.0710 n3         1 DA6      -0.707600
     23 CD7         -6.6440     3.0110    -0.9290 c3         1 DA6       0.142100
     24 CD8         -8.2750     1.6190     0.1060 c3         1 DA6       0.142100
     25 H1          -0.0100    -4.9480    -0.0260 ha         1 DA6       0.132000
     26 H2          -2.4150    -4.8290     0.2390 ha         1 DA6       0.176000
     27 H3          -3.5680    -2.7060     0.4220 ha         1 DA6       0.165000
     28 H5           1.6880     1.8070     0.1110 ha         1 DA6       0.189000
     29 H7           5.4750    -0.1810    -0.4190 ha         1 DA6       0.184000
     30 H8           4.4070    -2.3310    -0.4100 ha         1 DA6       0.133000
     31 HN91         2.4910    -4.3080    -1.1390 hn         1 DA6       0.536667
     32 HN92         3.3410    -3.9230     0.2150 hn         1 DA6       0.536667
     33 HN93         1.9510    -4.7480     0.3530 hn         1 DA6       0.536667
     34 H10         -0.2710     0.4430     0.2860 hn         1 DA6       0.454000
     35 HND1        -4.3150    -0.9620    -0.0980 hn         1 DA6       0.330500
     36 HD21        -4.1430     1.8660    -0.3860 h1         1 DA6       0.086200
     37 HD22        -4.5450     1.4790     1.2850 h1         1 DA6       0.086200
     38 HD31        -6.4070     0.0270     0.5270 h1         1 DA6       0.035200
     39 HD32        -6.0790     0.4430    -1.1540 h1         1 DA6       0.035200
     40 HD71        -5.6080     3.3500    -0.9160 h1         1 DA6       0.043367
     41 HD72        -6.8740     2.6710    -1.9510 h1         1 DA6       0.043367
     42 HD73        -7.2700     3.8790    -0.7170 h1         1 DA6       0.043367
     43 HD81        -8.6330     1.1810    -0.8390 h1         1 DA6       0.043367
     44 HD82        -8.4550     0.8940     0.9000 h1         1 DA6       0.043367
     45 HD83        -8.8840     2.5000     0.3130 h1         1 DA6       0.043367
@<TRIPOS>BOND
     1     1     2 ar  
     2     1    12 ar  
     3     1    25 1   
     4     2     3 ar  
     5     2    26 1   
     6     3     4 ar  
     7     3    27 1   
     8     4    13 ar  
     9     4    17 1   
    10     5     6 ar  
    11     5    15 ar  
    12     5    28 1   
    13     6     7 ar  
    14     6    16 1   
    15     7     8 ar  
    16     7    29 1   
    17     8    14 ar  
    18     8    30 1   
    19     9    10 1   
    20     9    12 ar  
    21     9    14 ar  
    22    10    31 1   
    23    10    32 1   
    24    10    33 1   
    25    11    13 1   
    26    11    15 2   
    27    11    34 1   
    28    12    13 ar  
    29    14    15 ar  
    30    17    18 2   
    31    17    19 1   
    32    19    20 1   
    33    19    35 1   
    34    20    21 1   
    35    20    36 1   
    36    20    37 1   
    37    21    22 1   
    38    21    38 1   
    39    21    39 1   
    40    22    23 1   
    41    22    24 1   
    42    23    40 1   
    43    23    41 1   
    44    23    42 1   
    45    24    43 1   
    46    24    44 1   
    47    24    45 1   
@<TRIPOS>SUBSTRUCTURE
     1 DA6         1 TEMP              0 ****  ****    0 ROOT
