@<TRIPOS>MOLECULE
DA6
   45    47     1     0     0
SMALL
No Charge or Current Charge


@<TRIPOS>ATOM
      1 C1          -0.4350    -3.9020    -0.0460 ca         1 DA6      -0.114000
      2 C2          -1.8330    -3.8370    -0.0250 ca         1 DA6      -0.029000
      3 C3          -2.4860    -2.5990     0.0290 ca         1 DA6       0.008000
      4 C4          -1.7500    -1.3870     0.0580 ca         1 DA6      -0.157600
      5 C5           2.5580     0.8670    -0.0280 ca         1 DA6      -0.108000
      6 C6           3.9600     0.8440    -0.1020 ca         1 DA6       0.048100
      7 C7           4.6420    -0.3790    -0.1560 ca         1 DA6       0.003000
      8 C8           3.9210    -1.5860    -0.1320 ca         1 DA6      -0.137000
      9 C9           1.7510    -2.7710    -0.0270 ca         1 DA6       0.222000
     10 N9           2.4480    -4.0880    -0.0230 nz         1 DA6      -1.022000
     11 N10          0.4350    -0.2840     0.0690 na         1 DA6      -0.065700
     12 C11          0.3360    -2.7190    -0.0080 ca         1 DA6      -0.062000
     13 C12         -0.3220    -1.4610     0.0380 ca         1 DA6       0.047000
     14 C13          2.5060    -1.5770    -0.0520 ca         1 DA6      -0.048000
     15 C14          1.8270    -0.3380    -0.0060 ca         1 DA6       0.091700
     16 Br           4.9430     2.4870    -0.1350 br         1 DA6       0.080900
     17 CD1         -2.4820    -0.0470     0.1130 c          1 DA6       0.609700
     18 OD1         -1.8860     1.0210     0.2020 o          1 DA6      -0.631100
     19 ND1         -3.8590    -0.0640     0.0640 ns         1 DA6      -0.426900
     20 CD2         -4.6960     1.1440     0.1140 c3         1 DA6       0.083000
     21 CD3         -6.2070     0.8260     0.0030 c3         1 DA6       0.150800
     22 ND2         -7.1110     1.9960     0.1620 n3         1 DA6      -0.707600
     23 CD7         -6.9230     3.0450    -0.8710 c3         1 DA6       0.142100
     24 CD8         -8.5310     1.5920     0.2860 c3         1 DA6       0.142100
     25 H1           0.0260    -4.8830    -0.1050 ha         1 DA6       0.132000
     26 H2          -2.4180    -4.7550    -0.0540 ha         1 DA6       0.176000
     27 H3          -3.5720    -2.6120     0.0480 ha         1 DA6       0.165000
     28 H5           2.0470     1.8270     0.0100 ha         1 DA6       0.189000
     29 H7           5.7280    -0.3920    -0.2200 ha         1 DA6       0.184000
     30 H8           4.4810    -2.5140    -0.1930 ha         1 DA6       0.133000
     31 HN91         2.6130    -4.4950    -0.9560 hn         1 DA6       0.536667
     32 HN92         3.3540    -4.0560     0.4630 hn         1 DA6       0.536667
     33 HN93         1.9660    -4.7940     0.5490 hn         1 DA6       0.536667
     34 H10         -0.0530     0.6080     0.1400 hn         1 DA6       0.454000
     35 HND1        -4.3150    -0.9620    -0.0210 hn         1 DA6       0.330500
     36 HD21        -4.3970     1.8100    -0.7060 h1         1 DA6       0.086200
     37 HD22        -4.5090     1.6650     1.0620 h1         1 DA6       0.086200
     38 HD31        -6.4420     0.0850     0.7800 h1         1 DA6       0.035200
     39 HD32        -6.3910     0.3420    -0.9660 h1         1 DA6       0.035200
     40 HD71        -5.9020     3.4480    -0.8510 h1         1 DA6       0.043367
     41 HD72        -7.1180     2.6460    -1.8760 h1         1 DA6       0.043367
     42 HD73        -7.6090     3.8850    -0.7000 h1         1 DA6       0.043367
     43 HD81        -8.8860     1.1130    -0.6370 h1         1 DA6       0.043367
     44 HD82        -8.6640     0.8820     1.1130 h1         1 DA6       0.043367
     45 HD83        -9.1680     2.4640     0.4870 h1         1 DA6       0.043367
@<TRIPOS>BOND
     1     1     2 ar  
     2     1    12 ar  
     3     1    25 1   
     4     2     3 ar  
     5     2    26 1   
     6     3     4 ar  
     7     3    27 1   
     8     4    13 ar  
     9     4    17 1   
    10     5     6 ar  
    11     5    15 ar  
    12     5    28 1   
    13     6     7 ar  
    14     6    16 1   
    15     7     8 ar  
    16     7    29 1   
    17     8    14 ar  
    18     8    30 1   
    19     9    10 1   
    20     9    12 ar  
    21     9    14 ar  
    22    10    31 1   
    23    10    32 1   
    24    10    33 1   
    25    11    13 1   
    26    11    15 2   
    27    11    34 1   
    28    12    13 ar  
    29    14    15 ar  
    30    17    18 2   
    31    17    19 1   
    32    19    20 1   
    33    19    35 1   
    34    20    21 1   
    35    20    36 1   
    36    20    37 1   
    37    21    22 1   
    38    21    38 1   
    39    21    39 1   
    40    22    23 1   
    41    22    24 1   
    42    23    40 1   
    43    23    41 1   
    44    23    42 1   
    45    24    43 1   
    46    24    44 1   
    47    24    45 1   
@<TRIPOS>SUBSTRUCTURE
     1 DA6         1 TEMP              0 ****  ****    0 ROOT
