@<TRIPOS>MOLECULE
DA7
   43    45     1     0     0
SMALL
No Charge or Current Charge


@<TRIPOS>ATOM
      1 C8           0.6270     0.9180    -4.0520 ca         1 DA7      -0.086000
      2 C7           1.9820     1.2720    -3.9590 ca         1 DA7      -0.113000
      3 C6           2.6560     1.1380    -2.7390 ca         1 DA7      -0.127000
      4 C5           1.9720     0.6530    -1.6150 ca         1 DA7       0.169000
      5 F            2.6520     0.5370    -0.4460 f          1 DA7      -0.161000
      6 N10         -0.0350    -0.1740    -0.5870 nb         1 DA7      -0.749000
      7 C4          -1.9830    -1.0090     0.5750 ca         1 DA7      -0.152600
      8 C3          -3.3500    -1.3630     0.5140 ca         1 DA7      -0.022000
      9 C2          -4.0740    -1.2500    -0.6750 ca         1 DA7      -0.141000
     10 C1          -3.4500    -0.7820    -1.8320 ca         1 DA7      -0.062000
     11 C13         -0.0730     0.4220    -2.9190 ca         1 DA7      -0.171000
     12 C14          0.6010     0.2890    -1.6870 ca         1 DA7       0.327000
     13 C12         -1.3380    -0.5280    -0.6060 ca         1 DA7       0.376000
     14 C11         -2.0810    -0.4200    -1.8110 ca         1 DA7      -0.184000
     15 C9          -1.4320     0.0530    -2.9740 ca         1 DA7       0.432000
     16 N9          -2.1200     0.1490    -4.1630 nv         1 DA7      -1.096000
     17 C15         -1.2990    -1.1720     1.9270 c          1 DA7       0.610700
     18 O15         -1.9100    -1.5790     2.9080 o          1 DA7      -0.639100
     19 N16          0.0330    -0.8580     2.0370 ns         1 DA7      -0.498900
     20 C17          0.8320    -0.9170     3.2670 c3         1 DA7       0.109000
     21 C18          0.5010     0.2300     4.2580 c3         1 DA7       0.141800
     22 N19          1.3810     0.3060     5.4560 n3         1 DA7      -0.718600
     23 C20          1.1560     1.5460     6.2330 c3         1 DA7       0.152600
     24 C21          1.3220    -0.9010     6.3150 c3         1 DA7       0.152600
     25 H8           0.1380     1.0410    -5.0150 ha         1 DA7       0.103000
     26 H7           2.5070     1.6510    -4.8330 ha         1 DA7       0.120000
     27 H6           3.7050     1.4110    -2.6590 ha         1 DA7       0.135000
     28 H3          -3.8680    -1.7320     1.3980 ha         1 DA7       0.147000
     29 H2          -5.1260    -1.5260    -0.6980 ha         1 DA7       0.121000
     30 H1          -4.0510    -0.7040    -2.7330 ha         1 DA7       0.099000
     31 HN91        -1.5890     0.2670    -5.0210 hn         1 DA7       0.496000
     32 HN92        -3.0100    -0.3310    -4.2540 hn         1 DA7       0.496000
     33 H16          0.4650    -0.5260     1.1780 hn         1 DA7       0.366500
     34 H171         1.8930    -0.8560     2.9910 h1         1 DA7       0.057200
     35 H172         0.6630    -1.8880     3.7480 h1         1 DA7       0.057200
     36 H181        -0.5470     0.1300     4.5720 h1         1 DA7       0.039200
     37 H182         0.5750     1.1730     3.6980 h1         1 DA7       0.039200
     38 H201         1.8710     1.6190     7.0640 h1         1 DA7       0.029367
     39 H202         1.2880     2.4320     5.5970 h1         1 DA7       0.029367
     40 H203         0.1400     1.5690     6.6500 h1         1 DA7       0.029367
     41 H211         1.6330    -1.7970     5.7630 h1         1 DA7       0.029367
     42 H212         1.9950    -0.7950     7.1770 h1         1 DA7       0.029367
     43 H213         0.3040    -1.0630     6.6930 h1         1 DA7       0.029367
@<TRIPOS>BOND
     1     1     2 ar  
     2     1    11 ar  
     3     1    25 1   
     4     2     3 ar  
     5     2    26 1   
     6     3     4 ar  
     7     3    27 1   
     8     4     5 1   
     9     4    12 ar  
    10     6    12 ar  
    11     6    13 ar  
    12     7     8 ar  
    13     7    13 ar  
    14     7    17 1   
    15     8     9 ar  
    16     8    28 1   
    17     9    10 ar  
    18     9    29 1   
    19    10    14 ar  
    20    10    30 1   
    21    11    12 ar  
    22    11    15 ar  
    23    13    14 ar  
    24    14    15 ar  
    25    15    16 1   
    26    16    31 1   
    27    16    32 1   
    28    17    18 2   
    29    17    19 1   
    30    19    20 1   
    31    19    33 1   
    32    20    21 1   
    33    20    34 1   
    34    20    35 1   
    35    21    22 1   
    36    21    36 1   
    37    21    37 1   
    38    22    23 1   
    39    22    24 1   
    40    23    38 1   
    41    23    39 1   
    42    23    40 1   
    43    24    41 1   
    44    24    42 1   
    45    24    43 1   
@<TRIPOS>SUBSTRUCTURE
     1 DA7         1 TEMP              0 ****  ****    0 ROOT
