@<TRIPOS>MOLECULE
DA7
   43    45     1     0     0
SMALL
abcg2


@<TRIPOS>ATOM
      1 C8           0.6400     0.9950    -3.9600 ca         1 DA7      -0.086000
      2 C7           1.9130     1.4540    -3.7870 ca         1 DA7      -0.113000
      3 C6           2.5270     1.4050    -2.5150 ca         1 DA7      -0.127000
      4 C5           1.8330     0.8930    -1.4680 ca         1 DA7       0.169000
      5 F            2.3930     0.8370    -0.2540 f          1 DA7      -0.161000
      6 N10         -0.0860    -0.0870    -0.5000 nb         1 DA7      -0.749000
      7 C4          -1.9780    -1.0630     0.5890 ca         1 DA7      -0.152600
      8 C3          -3.2760    -1.4960     0.4990 ca         1 DA7      -0.022000
      9 C2          -3.9990    -1.4540    -0.7060 ca         1 DA7      -0.141000
     10 C1          -3.4030    -0.9800    -1.8370 ca         1 DA7      -0.062000
     11 C13         -0.0940     0.4620    -2.8700 ca         1 DA7      -0.171000
     12 C14          0.5050     0.4010    -1.5880 ca         1 DA7       0.327000
     13 C12         -1.3360    -0.5370    -0.5880 ca         1 DA7       0.376000
     14 C11         -2.0680    -0.5160    -1.8140 ca         1 DA7      -0.184000
     15 C9          -1.4250    -0.0270    -2.9880 ca         1 DA7       0.432000
     16 N9          -2.0490    -0.0150    -4.1640 nv         1 DA7      -1.096000
     17 C15         -1.3310    -1.2060     1.9450 c          1 DA7       0.610700
     18 O15         -1.9800    -1.6520     2.8880 o          1 DA7      -0.639100
     19 N16         -0.0450    -0.8600     2.0500 ns         1 DA7      -0.498900
     20 C17          0.7090    -0.9990     3.2720 c3         1 DA7       0.109000
     21 C18          0.6160     0.2420     4.1580 c3         1 DA7       0.141800
     22 N19          1.4430     0.1280     5.3440 n3         1 DA7      -0.718600
     23 C20          1.6820     1.4210     5.9480 c3         1 DA7       0.152600
     24 C21          0.8950    -0.7940     6.3160 c3         1 DA7       0.152600
     25 H8           0.2080     1.0510    -4.9500 ha         1 DA7       0.103000
     26 H7           2.4640     1.8590    -4.6240 ha         1 DA7       0.120000
     27 H6           3.5360     1.7710    -2.3740 ha         1 DA7       0.135000
     28 H3          -3.7580    -1.8860     1.3850 ha         1 DA7       0.147000
     29 H2          -5.0220    -1.8030    -0.7320 ha         1 DA7       0.121000
     30 H1          -3.9870    -0.9630    -2.7480 ha         1 DA7       0.099000
     31 HN91        -1.5900     0.2830    -5.0060 hn         1 DA7       0.496000
     32 HN92        -2.9600    -0.4150    -4.2950 hn         1 DA7       0.496000
     33 H16          0.3870    -0.4690     1.2140 hn         1 DA7       0.366500
     34 H171         1.7540    -1.1670     3.0060 h1         1 DA7       0.057200
     35 H172         0.3640    -1.8860     3.8010 h1         1 DA7       0.057200
     36 H181        -0.4400     0.4420     4.4070 h1         1 DA7       0.039200
     37 H182         0.9690     1.0980     3.5790 h1         1 DA7       0.039200
     38 H201         2.3580     1.3150     6.7980 h1         1 DA7       0.029367
     39 H202         2.1550     2.0910     5.2290 h1         1 DA7       0.029367
     40 H203         0.7660     1.9110     6.3130 h1         1 DA7       0.029367
     41 H211         0.7900    -1.7950     5.8980 h1         1 DA7       0.029367
     42 H212         1.5680    -0.8720     7.1720 h1         1 DA7       0.029367
     43 H213        -0.0930    -0.4840     6.6940 h1         1 DA7       0.029367
@<TRIPOS>BOND
     1     1     2 ar  
     2     1    11 ar  
     3     1    25 1   
     4     2     3 ar  
     5     2    26 1   
     6     3     4 ar  
     7     3    27 1   
     8     4     5 1   
     9     4    12 ar  
    10     6    12 ar  
    11     6    13 ar  
    12     7     8 ar  
    13     7    13 ar  
    14     7    17 1   
    15     8     9 ar  
    16     8    28 1   
    17     9    10 ar  
    18     9    29 1   
    19    10    14 ar  
    20    10    30 1   
    21    11    12 ar  
    22    11    15 ar  
    23    13    14 ar  
    24    14    15 ar  
    25    15    16 1   
    26    16    31 1   
    27    16    32 1   
    28    17    18 2   
    29    17    19 1   
    30    19    20 1   
    31    19    33 1   
    32    20    21 1   
    33    20    34 1   
    34    20    35 1   
    35    21    22 1   
    36    21    36 1   
    37    21    37 1   
    38    22    23 1   
    39    22    24 1   
    40    23    38 1   
    41    23    39 1   
    42    23    40 1   
    43    24    41 1   
    44    24    42 1   
    45    24    43 1   
@<TRIPOS>SUBSTRUCTURE
     1 DA7         1 TEMP              0 ****  ****    0 ROOT
