@<TRIPOS>MOLECULE
DA8
   67    68     1     0     0
SMALL
bcc


@<TRIPOS>ATOM
      1 C16         -7.1380     0.8040     0.2010 c3         1 DA8      -0.075400
      2 C15         -6.1220    -0.2540    -0.2110 c3         1 DA8      -0.074400
      3 C14         -4.7010     0.0900     0.2160 c3         1 DA8      -0.074400
      4 C13         -3.6660    -0.9410    -0.2170 c3         1 DA8      -0.073400
      5 C12         -2.2570    -0.5730     0.2330 c3         1 DA8      -0.083400
      6 C11         -1.2140    -1.5540    -0.2610 c3         1 DA8       0.144400
      7 O1           0.0500    -1.1620     0.2540 os         1 DA8      -0.397600
      8 C1           1.1470    -1.7200    -0.3600 c6         1 DA8       0.354900
      9 O5           1.2690    -3.0490     0.1000 os         1 DA8      -0.419600
     10 C5           2.3500    -3.7610    -0.4580 c6         1 DA8       0.168100
     11 C6           2.2790    -5.1940     0.0290 c3         1 DA8       0.146400
     12 O6           1.1570    -5.8170    -0.5550 oh         1 DA8      -0.594800
     13 C4           3.6760    -3.0970    -0.1060 c6         1 DA8       0.114100
     14 O4           3.8920    -3.2430     1.2830 oh         1 DA8      -0.583800
     15 C3           3.6270    -1.6320    -0.5230 c6         1 DA8      -0.136400
     16 C2           2.3930    -0.9340     0.0360 c6         1 DA8       0.124100
     17 O2           2.2950     0.3710    -0.5010 os         1 DA8      -0.417600
     18 C1F          2.7560     1.3920     0.3190 c6         1 DA8       0.318900
     19 O5F          1.8850     1.6730     1.3750 os         1 DA8      -0.415600
     20 C5F          0.5980     2.1380     0.9850 c6         1 DA8       0.110100
     21 C6F         -0.2260     2.2880     2.2460 c3         1 DA8      -0.092100
     22 C4F          0.7060     3.4320     0.1770 c6         1 DA8       0.122100
     23 O4F          1.2250     4.5060     0.9250 oh         1 DA8      -0.577800
     24 C3F          1.6180     3.1830    -1.0140 c6         1 DA8       0.161100
     25 O3F          1.7680     4.3730    -1.7470 oh         1 DA8      -0.581800
     26 C2F          2.9620     2.6450    -0.5380 c6         1 DA8       0.088100
     27 O2F          3.7560     2.3950    -1.6740 oh         1 DA8      -0.591800
     28 H16         -6.8480     1.7690    -0.2290 hc         1 DA8       0.037200
     29 C19         -8.5640     0.4740    -0.2230 c3         1 DA8      -0.074400
     30 H16A        -7.1050     0.9350     1.2880 hc         1 DA8       0.037200
     31 H15         -6.4080    -1.2210     0.2170 hc         1 DA8       0.038200
     32 H15A        -6.1540    -0.3830    -1.2990 hc         1 DA8       0.038200
     33 H14         -4.4260     1.0670    -0.1960 hc         1 DA8       0.037200
     34 H14A        -4.6650     0.2020     1.3060 hc         1 DA8       0.037200
     35 H13         -3.9380    -1.9230     0.1850 hc         1 DA8       0.039700
     36 H13A        -3.6900    -1.0410    -1.3070 hc         1 DA8       0.039700
     37 H12         -2.0110     0.4290    -0.1340 hc         1 DA8       0.047700
     38 H12A        -2.2240    -0.5210     1.3260 hc         1 DA8       0.047700
     39 H11         -1.4670    -2.5690     0.0710 h1         1 DA8       0.035200
     40 H11A        -1.1930    -1.5630    -1.3560 h1         1 DA8       0.035200
     41 H1           1.0390    -1.7130    -1.4580 h2         1 DA8       0.031700
     42 H5           2.2860    -3.7780    -1.5530 h1         1 DA8       0.047700
     43 H6           3.2120    -5.6950    -0.2610 h1         1 DA8       0.036700
     44 H6A          2.2280    -5.2150     1.1230 h1         1 DA8       0.036700
     45 HO6          1.1240    -6.7210    -0.2320 ho         1 DA8       0.404000
     46 H4           4.4670    -3.6030    -0.6780 h1         1 DA8       0.037700
     47 HO4          4.7640    -2.8940     1.4870 ho         1 DA8       0.401000
     48 H3           4.5380    -1.1170    -0.1990 hc         1 DA8       0.056200
     49 H3A          3.6110    -1.5700    -1.6150 hc         1 DA8       0.056200
     50 H2           2.4380    -0.9070     1.1310 h1         1 DA8       0.085700
     51 H1F          3.7030     1.1110     0.8010 h2         1 DA8       0.060700
     52 H5F          0.1110     1.3950     0.3460 h1         1 DA8       0.067700
     53 H6F          0.2390     2.9630     2.9670 hc         1 DA8       0.046033
     54 H6FA        -1.2200     2.6690     2.0080 hc         1 DA8       0.046033
     55 H6FB        -0.3550     1.3210     2.7320 hc         1 DA8       0.046033
     56 H4F         -0.3000     3.6700    -0.2020 h1         1 DA8       0.046700
     57 HO4F         0.5700     4.7580     1.5800 ho         1 DA8       0.403000
     58 H3F          1.1310     2.4110    -1.6270 h1         1 DA8       0.056700
     59 HO3F         2.3910     4.1890    -2.4560 ho         1 DA8       0.416000
     60 H2F          3.4320     3.3990     0.1060 h1         1 DA8       0.073700
     61 HO2F         4.6800     2.4810    -1.4290 ho         1 DA8       0.407000
     62 H34         -8.8570    -0.4890     0.2060 hc         1 DA8       0.036700
     63 C20         -9.5660     1.5420     0.1920 c3         1 DA8      -0.088100
     64 H35         -8.5990     0.3430    -1.3090 hc         1 DA8       0.036700
     65 H36         -9.3080     2.5120    -0.2360 hc         1 DA8       0.031367
     66 H37        -10.5760     1.2950    -0.1360 hc         1 DA8       0.031367
     67 H38         -9.5910     1.6590     1.2770 hc         1 DA8       0.031367
@<TRIPOS>BOND
     1     1     2 1   
     2     1    28 1   
     3     1    29 1   
     4     1    30 1   
     5     2     3 1   
     6     2    31 1   
     7     2    32 1   
     8     3     4 1   
     9     3    33 1   
    10     3    34 1   
    11     4     5 1   
    12     4    35 1   
    13     4    36 1   
    14     5     6 1   
    15     5    37 1   
    16     5    38 1   
    17     6     7 1   
    18     6    39 1   
    19     6    40 1   
    20     7     8 1   
    21     8     9 1   
    22     8    16 1   
    23     8    41 1   
    24     9    10 1   
    25    10    11 1   
    26    10    13 1   
    27    10    42 1   
    28    11    12 1   
    29    11    43 1   
    30    11    44 1   
    31    12    45 1   
    32    13    14 1   
    33    13    15 1   
    34    13    46 1   
    35    14    47 1   
    36    15    16 1   
    37    15    48 1   
    38    15    49 1   
    39    16    17 1   
    40    16    50 1   
    41    17    18 1   
    42    18    19 1   
    43    18    26 1   
    44    18    51 1   
    45    19    20 1   
    46    20    21 1   
    47    20    22 1   
    48    20    52 1   
    49    21    53 1   
    50    21    54 1   
    51    21    55 1   
    52    22    23 1   
    53    22    24 1   
    54    22    56 1   
    55    23    57 1   
    56    24    25 1   
    57    24    26 1   
    58    24    58 1   
    59    25    59 1   
    60    26    27 1   
    61    26    60 1   
    62    27    61 1   
    63    29    62 1   
    64    29    63 1   
    65    29    64 1   
    66    63    65 1   
    67    63    66 1   
    68    63    67 1   
@<TRIPOS>SUBSTRUCTURE
     1 DA8         1 TEMP              0 ****  ****    0 ROOT
