@<TRIPOS>MOLECULE
DA8
   67    68     1     0     0
SMALL
No Charge or Current Charge


@<TRIPOS>ATOM
      1 C16         -7.5710     0.4320     0.1620 c3         1 DA8      -0.075400
      2 C15         -6.4440    -0.4640    -0.3980 c3         1 DA8      -0.074400
      3 C14         -5.0390    -0.0420     0.0870 c3         1 DA8      -0.074400
      4 C13         -3.9130    -0.9380    -0.4730 c3         1 DA8      -0.073400
      5 C12         -2.5080    -0.5160     0.0110 c3         1 DA8      -0.083400
      6 C11         -1.3850    -1.4100    -0.5480 c3         1 DA8       0.167600
      7 O1          -0.1420    -0.9110    -0.0340 os         1 DA8      -0.444000
      8 C1           1.0500    -1.5830    -0.4820 c6         1 DA8       0.401300
      9 O5           1.0380    -2.9250     0.0500 os         1 DA8      -0.466000
     10 C5           2.1900    -3.7130    -0.3490 c6         1 DA8       0.191300
     11 C6           1.9850    -5.1900     0.1280 c3         1 DA8       0.169600
     12 O6           0.8030    -5.8120    -0.4210 oh         1 DA8      -0.717000
     13 C4           3.5080    -3.0740     0.2100 c6         1 DA8       0.137300
     14 O4           3.5450    -3.0690     1.6490 oh         1 DA8      -0.706000
     15 C3           3.6160    -1.6160    -0.3010 c6         1 DA8      -0.136400
     16 C2           2.3200    -0.8080     0.0080 c6         1 DA8       0.147300
     17 O2           2.3870     0.4990    -0.6190 os         1 DA8      -0.464000
     18 C1F          3.1970     1.4830     0.0600 c6         1 DA8       0.365300
     19 O5F          2.5810     1.8260     1.3240 os         1 DA8      -0.462000
     20 C5F          1.2920     2.4760     1.2120 c6         1 DA8       0.133300
     21 C6F          0.7270     2.6150     2.6490 c3         1 DA8      -0.092100
     22 C4F          1.4340     3.8380     0.4550 c6         1 DA8       0.145300
     23 O4F          2.2960     4.7610     1.1700 oh         1 DA8      -0.700000
     24 C3F          2.0090     3.5100    -0.9630 c6         1 DA8       0.184300
     25 O3F          2.1690     4.6890    -1.7770 oh         1 DA8      -0.644000
     26 C2F          3.3690     2.7530    -0.8450 c6         1 DA8       0.111300
     27 O2F          3.8620     2.4080    -2.1660 oh         1 DA8      -0.714000
     28 H16         -7.3850     1.4720    -0.1350 hc         1 DA8       0.037200
     29 C19         -8.9750     0.0100    -0.3220 c3         1 DA8      -0.074400
     30 H16A        -7.5440     0.4010     1.2580 hc         1 DA8       0.037200
     31 H15         -6.6300    -1.5040    -0.1010 hc         1 DA8       0.038200
     32 H15A        -6.4710    -0.4340    -1.4940 hc         1 DA8       0.038200
     33 H14         -4.8540     0.9980    -0.2100 hc         1 DA8       0.037200
     34 H14A        -5.0130    -0.0730     1.1830 hc         1 DA8       0.037200
     35 H13         -4.0980    -1.9780    -0.1760 hc         1 DA8       0.039700
     36 H13A        -3.9390    -0.9080    -1.5700 hc         1 DA8       0.039700
     37 H12         -2.3200     0.5230    -0.2870 hc         1 DA8       0.047700
     38 H12A        -2.4780    -0.5490     1.1070 hc         1 DA8       0.047700
     39 H11         -1.5510    -2.4490    -0.2350 h1         1 DA8       0.035200
     40 H11A        -1.3950    -1.3700    -1.6460 h1         1 DA8       0.035200
     41 H1           1.0550    -1.6240    -1.5810 h2         1 DA8       0.031700
     42 H5           2.2420    -3.7250    -1.4480 h1         1 DA8       0.047700
     43 H6           2.8770    -5.7650    -0.1580 h1         1 DA8       0.036700
     44 H6A          1.9350    -5.1940     1.2250 h1         1 DA8       0.036700
     45 HO6          0.7180    -6.6960     0.0080 ho         1 DA8       0.503000
     46 H4           4.3630    -3.6470    -0.1790 h1         1 DA8       0.037700
     47 HO4          4.4580    -2.8130     1.9150 ho         1 DA8       0.500000
     48 H3           4.4940    -1.1290     0.1430 hc         1 DA8       0.056200
     49 H3A          3.7840    -1.6270    -1.3860 hc         1 DA8       0.056200
     50 H2           2.2200    -0.6830     1.0960 h1         1 DA8       0.085700
     51 H1F          4.1950     1.0630     0.2510 h2         1 DA8       0.060700
     52 H5F          0.6070     1.8220     0.6510 h1         1 DA8       0.067700
     53 H6F          1.4070     3.1730     3.3040 hc         1 DA8       0.046033
     54 H6FA        -0.2400     3.1310     2.6440 hc         1 DA8       0.046033
     55 H6FB         0.5700     1.6280     3.1000 hc         1 DA8       0.046033
     56 H4F          0.4320     4.2740     0.3310 h1         1 DA8       0.046700
     57 HO4F         1.8640     4.9480     2.0330 ho         1 DA8       0.502000
     58 H3F          1.2930     2.8340    -1.4560 h1         1 DA8       0.056700
     59 HO3F         2.8740     4.4480    -2.4210 ho         1 DA8       0.455000
     60 H2F          4.0880     3.4160    -0.3420 h1         1 DA8       0.073700
     61 HO2F         3.4460     1.5410    -2.3930 ho         1 DA8       0.506000
     62 H34         -9.1660    -1.0290    -0.0260 hc         1 DA8       0.036700
     63 C20        -10.0990     0.9040     0.2360 c3         1 DA8      -0.088100
     64 H35         -9.0070     0.0410    -1.4190 hc         1 DA8       0.036700
     65 H36         -9.9560     1.9460    -0.0730 hc         1 DA8       0.031367
     66 H37        -11.0750     0.5670    -0.1340 hc         1 DA8       0.031367
     67 H38        -10.1170     0.8660     1.3320 hc         1 DA8       0.031367
@<TRIPOS>BOND
     1     1     2 1   
     2     1    28 1   
     3     1    29 1   
     4     1    30 1   
     5     2     3 1   
     6     2    31 1   
     7     2    32 1   
     8     3     4 1   
     9     3    33 1   
    10     3    34 1   
    11     4     5 1   
    12     4    35 1   
    13     4    36 1   
    14     5     6 1   
    15     5    37 1   
    16     5    38 1   
    17     6     7 1   
    18     6    39 1   
    19     6    40 1   
    20     7     8 1   
    21     8     9 1   
    22     8    16 1   
    23     8    41 1   
    24     9    10 1   
    25    10    11 1   
    26    10    13 1   
    27    10    42 1   
    28    11    12 1   
    29    11    43 1   
    30    11    44 1   
    31    12    45 1   
    32    13    14 1   
    33    13    15 1   
    34    13    46 1   
    35    14    47 1   
    36    15    16 1   
    37    15    48 1   
    38    15    49 1   
    39    16    17 1   
    40    16    50 1   
    41    17    18 1   
    42    18    19 1   
    43    18    26 1   
    44    18    51 1   
    45    19    20 1   
    46    20    21 1   
    47    20    22 1   
    48    20    52 1   
    49    21    53 1   
    50    21    54 1   
    51    21    55 1   
    52    22    23 1   
    53    22    24 1   
    54    22    56 1   
    55    23    57 1   
    56    24    25 1   
    57    24    26 1   
    58    24    58 1   
    59    25    59 1   
    60    26    27 1   
    61    26    60 1   
    62    27    61 1   
    63    29    62 1   
    64    29    63 1   
    65    29    64 1   
    66    63    65 1   
    67    63    66 1   
    68    63    67 1   
@<TRIPOS>SUBSTRUCTURE
     1 DA8         1 TEMP              0 ****  ****    0 ROOT
