@<TRIPOS>MOLECULE
DA9
   18    17     1     0     0
SMALL
abcg2


@<TRIPOS>ATOM
      1 N1          -3.7270    -0.2140     0.2390 n1         1 DA9       0.244000
      2 N2          -3.2020     0.4300    -0.6530 n2         1 DA9      -0.432200
      3 C3          -1.9420     1.0790    -0.3320 c3         1 DA9       0.075800
      4 C4          -0.8210     0.0660    -0.1350 c          1 DA9       0.582100
      5 O5          -1.0540    -1.0570     0.2810 o          1 DA9      -0.597100
      6 N6           0.4040     0.5350    -0.3990 ns         1 DA9      -0.506900
      7 C7           1.6130    -0.2320    -0.1850 c3         1 DA9       0.110000
      8 C8           2.7760     0.7080     0.0870 c3         1 DA9       0.053600
      9 S9           4.2860    -0.2890     0.2930 sh         1 DA9      -0.428800
     10 N10         -4.3160    -0.8200     0.9780 n1         1 DA9      -0.042000
     11 H3          -1.7290     1.7620    -1.1520 h1         1 DA9       0.073200
     12 H3A         -2.0180     1.6770     0.5810 h1         1 DA9       0.073200
     13 HN6          0.4930     1.4430    -0.8270 hn         1 DA9       0.313500
     14 H7           1.4630    -0.8970     0.6660 h1         1 DA9       0.071700
     15 H7A          1.8290    -0.8600    -1.0550 h1         1 DA9       0.071700
     16 H8           2.9100     1.4000    -0.7450 h1         1 DA9       0.061700
     17 H8A          2.5900     1.2860     0.9920 h1         1 DA9       0.061700
     18 HS9          5.1090     0.7190     0.6000 hs         1 DA9       0.213800
@<TRIPOS>BOND
     1     1     2 1   
     2     1    10 3   
     3     2     3 1   
     4     3     4 1   
     5     3    11 1   
     6     3    12 1   
     7     4     5 2   
     8     4     6 1   
     9     6     7 1   
    10     6    13 1   
    11     7     8 1   
    12     7    14 1   
    13     7    15 1   
    14     8     9 1   
    15     8    16 1   
    16     8    17 1   
    17     9    18 1   
@<TRIPOS>SUBSTRUCTURE
     1 DA9         1 TEMP              0 ****  ****    0 ROOT
