@<TRIPOS>MOLECULE
DA9
   18    17     1     0     0
SMALL
No Charge or Current Charge


@<TRIPOS>ATOM
      1 N1          -3.9090    -0.0720     0.3660 n1         1 DA9       0.244000
      2 N2          -3.3590     0.3550    -0.6640 n2         1 DA9      -0.432200
      3 C3          -2.0230     0.9740    -0.4920 c3         1 DA9       0.075800
      4 C4          -0.8530    -0.0370    -0.3530 c          1 DA9       0.582100
      5 O5          -0.9930    -1.2560    -0.3660 o          1 DA9      -0.597100
      6 N6           0.3930     0.5380    -0.2060 ns         1 DA9      -0.506900
      7 C7           1.6390    -0.2240    -0.0560 c3         1 DA9       0.110000
      8 C8           2.8670     0.6900     0.1110 c3         1 DA9       0.053600
      9 S9           4.4600    -0.2390     0.3040 sh         1 DA9      -0.428800
     10 N10         -4.4730    -0.5600     1.2250 n1         1 DA9      -0.042000
     11 H3          -1.7910     1.6120    -1.3540 h1         1 DA9       0.073200
     12 H3A         -2.0000     1.6200     0.3960 h1         1 DA9       0.073200
     13 HN6          0.4360     1.5520    -0.2040 hn         1 DA9       0.313500
     14 H7           1.5520    -0.8790     0.8210 h1         1 DA9       0.071700
     15 H7A          1.7770    -0.8580    -0.9430 h1         1 DA9       0.071700
     16 H8           2.9540     1.3440    -0.7660 h1         1 DA9       0.061700
     17 H8A          2.7290     1.3240     0.9970 h1         1 DA9       0.061700
     18 HS9          5.2580     0.8520     0.4180 hs         1 DA9       0.213800
@<TRIPOS>BOND
     1     1     2 1   
     2     1    10 3   
     3     2     3 1   
     4     3     4 1   
     5     3    11 1   
     6     3    12 1   
     7     4     5 2   
     8     4     6 1   
     9     6     7 1   
    10     6    13 1   
    11     7     8 1   
    12     7    14 1   
    13     7    15 1   
    14     8     9 1   
    15     8    16 1   
    16     8    17 1   
    17     9    18 1   
@<TRIPOS>SUBSTRUCTURE
     1 DA9         1 TEMP              0 ****  ****    0 ROOT
