@<TRIPOS>MOLECULE
DAB
   17    16     1     0     0
SMALL
bcc


@<TRIPOS>ATOM
      1 N            4.9400    19.4800    15.6020 n8         1 DAB      -0.880800
      2 CA           3.8500    20.2490    16.1810 c3         1 DAB       0.012500
      3 C            2.6240    20.2590    15.2360 c          1 DAB       0.935600
      4 O            2.8450    20.1000    14.0180 o          1 DAB      -0.837300
      5 CB           4.2020    21.7120    16.5120 c3         1 DAB      -0.099400
      6 CG           5.3350    21.8950    17.5130 c3         1 DAB       0.148800
      7 ND           4.9880    21.3590    18.8230 n8         1 DAB      -0.879800
      8 OXT          1.5200    20.4730    15.7750 o          1 DAB      -0.837300
      9 H            5.8040    19.6500    16.1030 hn         1 DAB       0.317300
     10 H2           5.0860    19.8020    14.6520 hn         1 DAB       0.317300
     11 HA           3.5380    19.7540    17.1080 h1         1 DAB       0.047700
     12 HB2          4.4740    22.2240    15.5820 hc         1 DAB       0.050200
     13 HB3          3.3120    22.2130    16.9020 hc         1 DAB       0.050200
     14 HG2          6.2650    21.4760    17.1000 h1         1 DAB       0.003200
     15 HG3          5.5220    22.9660    17.6260 h1         1 DAB       0.003200
     16 HD1          5.7380    21.5550    19.4740 hn         1 DAB       0.324800
     17 HD2          4.9350    20.3490    18.7740 hn         1 DAB       0.324800
@<TRIPOS>BOND
     1     1     2 1   
     2     1     9 1   
     3     1    10 1   
     4     2     3 1   
     5     2     5 1   
     6     2    11 1   
     7     3     4 1   
     8     3     8 1   
     9     5     6 1   
    10     5    12 1   
    11     5    13 1   
    12     6     7 1   
    13     6    14 1   
    14     6    15 1   
    15     7    16 1   
    16     7    17 1   
@<TRIPOS>SUBSTRUCTURE
     1 DAB         1 TEMP              0 ****  ****    0 ROOT
