@<TRIPOS>MOLECULE
DAB
   17    16     1     0     0
SMALL
No Charge or Current Charge


@<TRIPOS>ATOM
      1 N            4.9970    19.4610    15.5790 n8         1 DAB      -0.880800
      2 CA           3.8410    20.2630    16.1350 c3         1 DAB       0.012500
      3 C            2.4850    20.2480    15.3010 c          1 DAB       0.935600
      4 O            2.4850    20.7000    14.1580 o          1 DAB      -0.837300
      5 CB           4.2960    21.7230    16.4220 c3         1 DAB      -0.099400
      6 CG           5.3870    21.8840    17.5060 c3         1 DAB       0.148800
      7 ND           4.9150    21.4810    18.8390 n8         1 DAB      -0.879800
      8 OXT          1.4910    19.7250    15.7970 o          1 DAB      -0.837300
      9 H            5.8350    19.6410    16.1400 hn         1 DAB       0.317300
     10 H2           5.2280    19.8130    14.6440 hn         1 DAB       0.317300
     11 HA           3.5870    19.8080    17.1020 h1         1 DAB       0.047700
     12 HB2          4.6560    22.1770    15.4910 hc         1 DAB       0.050200
     13 HB3          3.4210    22.3120    16.7260 hc         1 DAB       0.050200
     14 HG2          6.2720    21.2870    17.2510 h1         1 DAB       0.003200
     15 HG3          5.6890    22.9390    17.5610 h1         1 DAB       0.003200
     16 HD1          5.6870    21.5730    19.5070 hn         1 DAB       0.324800
     17 HD2          4.7060    20.4790    18.8250 hn         1 DAB       0.324800
@<TRIPOS>BOND
     1     1     2 1   
     2     1     9 1   
     3     1    10 1   
     4     2     3 1   
     5     2     5 1   
     6     2    11 1   
     7     3     4 1   
     8     3     8 1   
     9     5     6 1   
    10     5    12 1   
    11     5    13 1   
    12     6     7 1   
    13     6    14 1   
    14     6    15 1   
    15     7    16 1   
    16     7    17 1   
@<TRIPOS>SUBSTRUCTURE
     1 DAB         1 TEMP              0 ****  ****    0 ROOT
