@<TRIPOS>MOLECULE
DAC
   43    42     1     0     0
SMALL
bcc


@<TRIPOS>ATOM
      1 C1          -0.9350     0.0550     0.9170 c          1 DAC       0.620900
      2 O1           0.1850     0.3990     0.6230 o          1 DAC      -0.525100
      3 C2          -2.0350    -0.2030    -0.0170 ce         1 DAC      -0.272200
      4 C3          -1.9260    -0.1710    -1.3510 c2         1 DAC      -0.055200
      5 C4          -0.7220     0.1160    -2.1880 c3         1 DAC      -0.063200
      6 C5          -0.9430    -0.2110    -3.6610 c3         1 DAC      -0.075400
      7 C6           0.2780     0.0990    -4.5160 c3         1 DAC      -0.075400
      8 C7           0.0780    -0.2300    -5.9890 c3         1 DAC      -0.074400
      9 C8           1.3010     0.0770    -6.8430 c3         1 DAC      -0.075400
     10 C9           1.1070    -0.2520    -8.3180 c3         1 DAC      -0.074400
     11 C10          2.3380     0.0530    -9.1600 c3         1 DAC      -0.088100
     12 S           -1.4360    -0.2010     2.6030 ss         1 DAC      -0.317700
     13 C11          0.1030     0.1740     3.4800 c3         1 DAC      -0.007300
     14 C12         -0.1210    -0.0550     4.9660 c3         1 DAC       0.115000
     15 N3           1.1070     0.2270     5.6780 ns         1 DAC      -0.581900
     16 C13          1.1680     0.2760     7.0190 c          1 DAC       0.666100
     17 O4           0.1830     0.1000     7.7240 o          1 DAC      -0.604100
     18 C14          2.5260     0.5760     7.5990 c3         1 DAC      -0.179100
     19 H2          -2.9980    -0.4420     0.4210 ha         1 DAC       0.150000
     20 H3          -2.8400    -0.3830    -1.8990 ha         1 DAC       0.123000
     21 H41          0.1440    -0.4320    -1.8090 hc         1 DAC       0.070200
     22 H42         -0.4610     1.1750    -2.0830 hc         1 DAC       0.070200
     23 H51         -1.8050     0.3500    -4.0350 hc         1 DAC       0.039700
     24 H52         -1.2000    -1.2710    -3.7640 hc         1 DAC       0.039700
     25 H61          1.1410    -0.4580    -4.1330 hc         1 DAC       0.040200
     26 H62          0.5340     1.1600    -4.4110 hc         1 DAC       0.040200
     27 H71         -0.7830     0.3290    -6.3730 hc         1 DAC       0.037200
     28 H72         -0.1800    -1.2900    -6.0920 hc         1 DAC       0.037200
     29 H81          2.1620    -0.4820    -6.4580 hc         1 DAC       0.037700
     30 H82          1.5600     1.1370    -6.7400 hc         1 DAC       0.037700
     31 H91          0.2490     0.3090    -8.7040 hc         1 DAC       0.036700
     32 H92          0.8450    -1.3100    -8.4210 hc         1 DAC       0.036700
     33 H101         2.1800    -0.1990   -10.2090 hc         1 DAC       0.031700
     34 H102         2.5980     1.1120    -9.1090 hc         1 DAC       0.031700
     35 H103         3.2030    -0.5140    -8.8110 hc         1 DAC       0.031700
     36 H1'1         0.8930    -0.4770     3.1030 h1         1 DAC       0.075700
     37 H1'2         0.3830     1.2100     3.2880 h1         1 DAC       0.075700
     38 H2'1        -0.9160     0.5980     5.3320 h1         1 DAC       0.064700
     39 H2'2        -0.4410    -1.0850     5.1450 h1         1 DAC       0.064700
     40 HN           1.9540     0.3410     5.1460 hn         1 DAC       0.314500
     41 H5'1         2.7880    -0.1940     8.3250 hc         1 DAC       0.060033
     42 H5'2         3.3170     0.6320     6.8540 hc         1 DAC       0.060033
     43 H5'3         2.4890     1.5260     8.1330 hc         1 DAC       0.060033
@<TRIPOS>BOND
     1     1     2 2   
     2     1     3 1   
     3     1    12 1   
     4     3     4 2   
     5     3    19 1   
     6     4     5 1   
     7     4    20 1   
     8     5     6 1   
     9     5    21 1   
    10     5    22 1   
    11     6     7 1   
    12     6    23 1   
    13     6    24 1   
    14     7     8 1   
    15     7    25 1   
    16     7    26 1   
    17     8     9 1   
    18     8    27 1   
    19     8    28 1   
    20     9    10 1   
    21     9    29 1   
    22     9    30 1   
    23    10    11 1   
    24    10    31 1   
    25    10    32 1   
    26    11    33 1   
    27    11    34 1   
    28    11    35 1   
    29    12    13 1   
    30    13    14 1   
    31    13    36 1   
    32    13    37 1   
    33    14    15 1   
    34    14    38 1   
    35    14    39 1   
    36    15    16 1   
    37    15    40 1   
    38    16    17 2   
    39    16    18 1   
    40    18    41 1   
    41    18    42 1   
    42    18    43 1   
@<TRIPOS>SUBSTRUCTURE
     1 DAC         1 TEMP              0 ****  ****    0 ROOT
