@<TRIPOS>MOLECULE
DAC
   43    42     1     0     0
SMALL
No Charge or Current Charge


@<TRIPOS>ATOM
      1 C1          -1.0970     0.0690     1.0460 c          1 DAC       0.620900
      2 O1           0.0830     0.2430     0.7780 o          1 DAC      -0.525100
      3 C2          -2.1790    -0.1740     0.0460 ce         1 DAC      -0.322200
      4 C3          -2.0380    -0.2430    -1.3020 c2         1 DAC      -0.105200
      5 C4          -0.7560    -0.0900    -2.1020 c3         1 DAC      -0.063200
      6 C5          -0.9710    -0.2290    -3.6260 c3         1 DAC      -0.075400
      7 C6           0.3330    -0.0720    -4.4380 c3         1 DAC      -0.075400
      8 C7           0.1170    -0.2110    -5.9610 c3         1 DAC      -0.074400
      9 C8           1.4210    -0.0550    -6.7740 c3         1 DAC      -0.075400
     10 C9           1.2050    -0.1940    -8.2960 c3         1 DAC      -0.074400
     11 C10          2.5060    -0.0380    -9.1070 c3         1 DAC      -0.088100
     12 S           -1.7580     0.0780     2.7380 ss         1 DAC      -0.365600
     13 C11         -0.2030     0.3930     3.6930 c3         1 DAC       0.040600
     14 C12         -0.4960     0.4510     5.2050 c3         1 DAC       0.115000
     15 N3           0.7040     0.7350     6.0020 ns         1 DAC      -0.514900
     16 C13          1.7260    -0.1570     6.2270 c          1 DAC       0.599100
     17 O4           1.7140    -1.2960     5.7830 o          1 DAC      -0.604100
     18 C14          2.8710     0.3810     7.0740 c3         1 DAC      -0.179100
     19 H2          -3.1690    -0.3050     0.4810 ha         1 DAC       0.200000
     20 H3          -2.9230    -0.4280    -1.9160 ha         1 DAC       0.173000
     21 H41         -0.0260    -0.8430    -1.7780 hc         1 DAC       0.070200
     22 H42         -0.3070     0.8900    -1.8960 hc         1 DAC       0.070200
     23 H51         -1.6940     0.5280    -3.9570 hc         1 DAC       0.039700
     24 H52         -1.4120    -1.2110    -3.8380 hc         1 DAC       0.039700
     25 H61          1.0570    -0.8280    -4.1070 hc         1 DAC       0.040200
     26 H62          0.7750     0.9100    -4.2250 hc         1 DAC       0.040200
     27 H71         -0.6070     0.5440    -6.2920 hc         1 DAC       0.037200
     28 H72         -0.3250    -1.1930    -6.1740 hc         1 DAC       0.037200
     29 H81          2.1450    -0.8100    -6.4420 hc         1 DAC       0.037700
     30 H82          1.8630     0.9270    -6.5610 hc         1 DAC       0.037700
     31 H91          0.4830     0.5610    -8.6320 hc         1 DAC       0.036700
     32 H92          0.7650    -1.1750    -8.5130 hc         1 DAC       0.036700
     33 H101         2.3020    -0.1440   -10.1800 hc         1 DAC       0.031700
     34 H102         2.9520     0.9490    -8.9390 hc         1 DAC       0.031700
     35 H103         3.2370    -0.8030    -8.8190 hc         1 DAC       0.031700
     36 H1'1         0.5150    -0.4090     3.4830 h1         1 DAC       0.075700
     37 H1'2         0.2330     1.3460     3.3660 h1         1 DAC       0.075700
     38 H2'1        -1.2390     1.2360     5.3990 h1         1 DAC       0.064700
     39 H2'2        -0.9240    -0.5060     5.5310 h1         1 DAC       0.064700
     40 HN           0.8020     1.6550     6.4190 hn         1 DAC       0.314500
     41 H5'1         3.6630    -0.3590     7.2320 hc         1 DAC       0.060033
     42 H5'2         3.2570     1.2960     6.6120 hc         1 DAC       0.060033
     43 H5'3         2.4680     0.7520     8.0240 hc         1 DAC       0.060033
@<TRIPOS>BOND
     1     1     2 2   
     2     1     3 1   
     3     1    12 1   
     4     3     4 2   
     5     3    19 1   
     6     4     5 1   
     7     4    20 1   
     8     5     6 1   
     9     5    21 1   
    10     5    22 1   
    11     6     7 1   
    12     6    23 1   
    13     6    24 1   
    14     7     8 1   
    15     7    25 1   
    16     7    26 1   
    17     8     9 1   
    18     8    27 1   
    19     8    28 1   
    20     9    10 1   
    21     9    29 1   
    22     9    30 1   
    23    10    11 1   
    24    10    31 1   
    25    10    32 1   
    26    11    33 1   
    27    11    34 1   
    28    11    35 1   
    29    12    13 1   
    30    13    14 1   
    31    13    36 1   
    32    13    37 1   
    33    14    15 1   
    34    14    38 1   
    35    14    39 1   
    36    15    16 1   
    37    15    40 1   
    38    16    17 2   
    39    16    18 1   
    40    18    41 1   
    41    18    42 1   
    42    18    43 1   
@<TRIPOS>SUBSTRUCTURE
     1 DAC         1 TEMP              0 ****  ****    0 ROOT
