@<TRIPOS>MOLECULE
DAF
   39    40     1     0     0
SMALL
No Charge or Current Charge


@<TRIPOS>ATOM
      1 C1           6.2720    68.2650    36.3430 c6         1 DAF       0.401300
      2 O1           7.1280    67.1760    36.6960 oh         1 DAF      -0.738000
      3 C2           4.7880    67.7650    36.2790 c6         1 DAF       0.106300
      4 O2           4.4210    67.0330    37.4710 oh         1 DAF      -0.671000
      5 C3           4.5990    66.8820    35.0220 c6         1 DAF       0.133300
      6 O3           3.2670    66.3750    34.8790 oh         1 DAF      -0.729000
      7 C4           4.9340    67.7270    33.7760 c6         1 DAF       0.193700
      8 N4           4.5570    66.9520    32.5450 n7         1 DAF      -0.936400
      9 C5           6.4010    68.1830    33.8880 c2         1 DAF       0.011900
     10 O5           6.7480    68.7910    35.0760 os         1 DAF      -0.358100
     11 C6           7.3340    68.0490    32.9330 c2         1 DAF      -0.311000
     12 C1H          3.6770    67.6080    31.5190 c6         1 DAF       0.231700
     13 C2H          4.3890    68.5960    30.5400 c6         1 DAF       0.143300
     14 O2H          5.5920    68.0420    29.9790 oh         1 DAF      -0.660000
     15 C3H          4.6910    69.9710    31.1890 c6         1 DAF       0.033300
     16 O3H          5.1910    70.8990    30.1840 oh         1 DAF      -0.657000
     17 C4H          3.4620    70.5540    31.9600 c          1 DAF       0.550300
     18 O4H          3.4300    71.7410    32.2590 o          1 DAF      -0.515100
     19 C5H          2.3530    69.6220    32.3300 ce         1 DAF      -0.314400
     20 C6H          2.4610    68.2760    32.1420 c2         1 DAF      -0.071200
     21 C7H          1.1280    70.2030    32.9540 c          1 DAF       0.585100
     22 O7H          0.1690    69.5250    33.3090 o          1 DAF      -0.510100
     23 H1           6.3480    69.0530    37.1110 h2         1 DAF       0.092700
     24 HO1          6.5930    66.6860    37.3640 ho         1 DAF       0.534000
     25 H2           4.1420    68.6500    36.1800 h1         1 DAF       0.065700
     26 HO2          3.6150    66.5220    37.2170 ho         1 DAF       0.474000
     27 H3           5.3080    66.0410    35.0620 h1         1 DAF       0.056700
     28 HO3          3.2260    66.2600    33.8940 ho         1 DAF       0.526000
     29 H4           4.3190    68.6360    33.8400 h1         1 DAF       0.071700
     30 HN4          5.4130    66.6360    32.0680 hn         1 DAF       0.469000
     31 H6           8.3500    68.4060    33.0930 ha         1 DAF       0.191000
     32 H6A          7.1390    67.5800    31.9730 ha         1 DAF       0.191000
     33 H1H          3.2950    66.7980    30.8760 h1         1 DAF       0.085700
     34 H2H          3.6750    68.7860    29.7250 h1         1 DAF       0.046700
     35 HO2H         6.0380    68.8050    29.5440 ho         1 DAF       0.473000
     36 H3H          5.4510    69.8200    31.9670 h1         1 DAF       0.090700
     37 HO3H         5.1700    71.8010    30.5860 ho         1 DAF       0.475000
     38 H6H          1.6530    67.5960    32.4190 ha         1 DAF       0.215000
     39 H7H          1.1130    71.3070    33.0880 h4         1 DAF       0.024200
@<TRIPOS>BOND
     1     1     2 1   
     2     1     3 1   
     3     1    10 1   
     4     1    23 1   
     5     2    24 1   
     6     3     4 1   
     7     3     5 1   
     8     3    25 1   
     9     4    26 1   
    10     5     6 1   
    11     5     7 1   
    12     5    27 1   
    13     6    28 1   
    14     7     8 1   
    15     7     9 1   
    16     7    29 1   
    17     8    12 1   
    18     8    30 1   
    19     9    10 1   
    20     9    11 2   
    21    11    31 1   
    22    11    32 1   
    23    12    13 1   
    24    12    20 1   
    25    12    33 1   
    26    13    14 1   
    27    13    15 1   
    28    13    34 1   
    29    14    35 1   
    30    15    16 1   
    31    15    17 1   
    32    15    36 1   
    33    16    37 1   
    34    17    18 2   
    35    17    19 1   
    36    19    20 2   
    37    19    21 1   
    38    20    38 1   
    39    21    22 2   
    40    21    39 1   
@<TRIPOS>SUBSTRUCTURE
     1 DAF         1 TEMP              0 ****  ****    0 ROOT
