@<TRIPOS>MOLECULE
DAF
   39    40     1     0     0
SMALL
abcg2


@<TRIPOS>ATOM
      1 C1           6.3180    68.1120    36.3450 c6         1 DAF       0.401300
      2 O1           7.2200    67.0350    36.4760 oh         1 DAF      -0.738000
      3 C2           4.8700    67.6220    36.3340 c6         1 DAF       0.106300
      4 O2           4.7120    66.7930    37.4810 oh         1 DAF      -0.671000
      5 C3           4.5690    66.8820    35.0460 c6         1 DAF       0.133300
      6 O3           3.1950    66.5280    35.0660 oh         1 DAF      -0.729000
      7 C4           4.8980    67.7760    33.8350 c6         1 DAF       0.193700
      8 N4           4.5100    67.0800    32.6220 n7         1 DAF      -0.936400
      9 C5           6.3400    68.2150    33.9530 c2         1 DAF       0.011900
     10 O5           6.6350    68.8250    35.1670 os         1 DAF      -0.358100
     11 C6           7.2850    68.1330    33.0270 c2         1 DAF      -0.311000
     12 C1H          3.7460    67.7240    31.5580 c6         1 DAF       0.231700
     13 C2H          4.4750    68.6820    30.5990 c6         1 DAF       0.143300
     14 O2H          5.6890    68.0790    30.1930 oh         1 DAF      -0.660000
     15 C3H          4.6810    70.0550    31.2310 c6         1 DAF       0.033300
     16 O3H          5.3960    70.9040    30.3600 oh         1 DAF      -0.657000
     17 C4H          3.3200    70.6390    31.5670 c          1 DAF       0.550300
     18 O4H          3.0780    71.8080    31.3230 o          1 DAF      -0.515100
     19 C5H          2.3330    69.7180    32.1660 ce         1 DAF      -0.314400
     20 C6H          2.5410    68.3900    32.1520 c2         1 DAF      -0.071200
     21 C7H          1.1090    70.2940    32.7750 c          1 DAF       0.585100
     22 O7H          0.2180    69.6300    33.2610 o          1 DAF      -0.510100
     23 H1           6.4670    68.8330    37.1510 h2         1 DAF       0.092700
     24 HO1          6.7780    66.3500    37.0010 ho         1 DAF       0.534000
     25 H2           4.2100    68.4950    36.3990 h1         1 DAF       0.065700
     26 HO2          3.8730    66.3200    37.3950 ho         1 DAF       0.474000
     27 H3           5.1860    65.9780    34.9890 h1         1 DAF       0.056700
     28 HO3          3.0080    66.1210    34.2070 ho         1 DAF       0.526000
     29 H4           4.2740    68.6680    33.9380 h1         1 DAF       0.071700
     30 HN4          5.2240    66.4650    32.2580 hn         1 DAF       0.469000
     31 H6           8.2880    68.4730    33.2440 ha         1 DAF       0.191000
     32 H6A          7.0580    67.7730    32.0360 ha         1 DAF       0.191000
     33 H1H          3.3740    66.8990    30.9410 h1         1 DAF       0.085700
     34 H2H          3.8240    68.8180    29.7260 h1         1 DAF       0.046700
     35 HO2H         6.1160    68.6670    29.5560 ho         1 DAF       0.473000
     36 H3H          5.2330    69.9440    32.1730 h1         1 DAF       0.090700
     37 HO3H         4.9270    71.7550    30.3490 ho         1 DAF       0.475000
     38 H6H          1.8030    67.7410    32.6110 ha         1 DAF       0.215000
     39 H7H          1.0570    71.3940    32.7690 h4         1 DAF       0.024200
@<TRIPOS>BOND
     1     1     2 1   
     2     1     3 1   
     3     1    10 1   
     4     1    23 1   
     5     2    24 1   
     6     3     4 1   
     7     3     5 1   
     8     3    25 1   
     9     4    26 1   
    10     5     6 1   
    11     5     7 1   
    12     5    27 1   
    13     6    28 1   
    14     7     8 1   
    15     7     9 1   
    16     7    29 1   
    17     8    12 1   
    18     8    30 1   
    19     9    10 1   
    20     9    11 2   
    21    11    31 1   
    22    11    32 1   
    23    12    13 1   
    24    12    20 1   
    25    12    33 1   
    26    13    14 1   
    27    13    15 1   
    28    13    34 1   
    29    14    35 1   
    30    15    16 1   
    31    15    17 1   
    32    15    36 1   
    33    16    37 1   
    34    17    18 2   
    35    17    19 1   
    36    19    20 2   
    37    19    21 1   
    38    20    38 1   
    39    21    22 2   
    40    21    39 1   
@<TRIPOS>SUBSTRUCTURE
     1 DAF         1 TEMP              0 ****  ****    0 ROOT
