@<TRIPOS>MOLECULE
DAG
   24    24     1     0     0
SMALL
abcg2


@<TRIPOS>ATOM
      1 C1           2.0990     8.3410    -3.7230 c6         1 DAG       0.403300
      2 C2           1.5610     9.4210    -2.7960 c6         1 DAG       0.153300
      3 C3           0.3110     8.8920    -2.1050 c6         1 DAG       0.087300
      4 C4          -0.7190     8.3840    -3.1190 c6         1 DAG       0.100500
      5 C5          -0.0430     7.3810    -4.0600 c6         1 DAG       0.196300
      6 C6          -0.9430     6.9200    -5.1860 c3         1 DAG      -0.079100
      7 O1           3.1780     8.8420    -4.4200 oh         1 DAG      -0.681000
      8 O2           2.5630     9.7580    -1.8720 oh         1 DAG      -0.705000
      9 O3          -0.1950     9.9420    -1.3060 oh         1 DAG      -0.720000
     10 N4          -1.8940     7.7860    -2.5090 n8         1 DAG      -0.996200
     11 O5           1.1030     7.9760    -4.6450 os         1 DAG      -0.492000
     12 H1           2.3820     7.4570    -3.1220 h2         1 DAG       0.020700
     13 H2           1.2760    10.2890    -3.4140 h1         1 DAG       0.072700
     14 H3           0.6080     8.0390    -1.4740 h1         1 DAG       0.034700
     15 H4          -1.0580     9.2330    -3.7240 h1         1 DAG       0.090700
     16 H5           0.2630     6.5030    -3.4650 h1         1 DAG       0.026700
     17 H61         -1.2730     7.7640    -5.7950 hc         1 DAG       0.050367
     18 H62         -0.4240     6.2120    -5.8330 hc         1 DAG       0.050367
     19 H63         -1.8260     6.4260    -4.7880 hc         1 DAG       0.050367
     20 HO1          3.6700     8.1120    -4.8100 ho         1 DAG       0.517000
     21 HO2          2.1660    10.3360    -1.2120 ho         1 DAG       0.518000
     22 HO3         -0.7180     9.5670    -0.5930 ho         1 DAG       0.505000
     23 HN41        -2.4150     8.4840    -1.9940 hn         1 DAG       0.398000
     24 HN42        -1.6190     7.0790    -1.8360 hn         1 DAG       0.398000
@<TRIPOS>BOND
     1     1     2 1   
     2     1     7 1   
     3     1    11 1   
     4     1    12 1   
     5     2     3 1   
     6     2     8 1   
     7     2    13 1   
     8     3     4 1   
     9     3     9 1   
    10     3    14 1   
    11     4     5 1   
    12     4    10 1   
    13     4    15 1   
    14     5     6 1   
    15     5    11 1   
    16     5    16 1   
    17     6    17 1   
    18     6    18 1   
    19     6    19 1   
    20     7    20 1   
    21     8    21 1   
    22     9    22 1   
    23    10    23 1   
    24    10    24 1   
@<TRIPOS>SUBSTRUCTURE
     1 DAG         1 TEMP              0 ****  ****    0 ROOT
