@<TRIPOS>MOLECULE
DAG
   24    24     1     0     0
SMALL
No Charge or Current Charge


@<TRIPOS>ATOM
      1 C1           2.2070     8.2600    -3.6560 c6         1 DAG       0.403300
      2 C2           1.6360     9.4100    -2.7490 c6         1 DAG       0.153300
      3 C3           0.3390     8.9060    -2.0520 c6         1 DAG       0.087300
      4 C4          -0.6800     8.3920    -3.1240 c6         1 DAG       0.100500
      5 C5           0.0200     7.3180    -4.0320 c6         1 DAG       0.196300
      6 C6          -0.8620     6.8490    -5.2160 c3         1 DAG      -0.079100
      7 O1           3.2930     8.6900    -4.4510 oh         1 DAG      -0.681000
      8 O2           2.5580     9.8680    -1.7350 oh         1 DAG      -0.705000
      9 O3          -0.2190     9.9570    -1.2330 oh         1 DAG      -0.720000
     10 N4          -1.9370     7.8780    -2.4890 n8         1 DAG      -0.996200
     11 O5           1.2260     7.8610    -4.6150 os         1 DAG      -0.492000
     12 H1           2.5040     7.3960    -3.0430 h2         1 DAG       0.020700
     13 H2           1.3630    10.2480    -3.4090 h1         1 DAG       0.072700
     14 H3           0.6140     8.0530    -1.4130 h1         1 DAG       0.034700
     15 H4          -0.9600     9.2360    -3.7760 h1         1 DAG       0.090700
     16 H5           0.2890     6.4380    -3.4280 h1         1 DAG       0.026700
     17 H61         -1.1710     7.6950    -5.8410 hc         1 DAG       0.050367
     18 H62         -0.3190     6.1400    -5.8510 hc         1 DAG       0.050367
     19 H63         -1.7680     6.3450    -4.8610 hc         1 DAG       0.050367
     20 HO1          2.9990     8.4370    -5.3530 ho         1 DAG       0.517000
     21 HO2          1.9730    10.2950    -1.0630 ho         1 DAG       0.518000
     22 HO3         -0.8950     9.5430    -0.6470 ho         1 DAG       0.505000
     23 HN41        -2.4550     8.6600    -2.0710 hn         1 DAG       0.398000
     24 HN42        -1.7030     7.2710    -1.6940 hn         1 DAG       0.398000
@<TRIPOS>BOND
     1     1     2 1   
     2     1     7 1   
     3     1    11 1   
     4     1    12 1   
     5     2     3 1   
     6     2     8 1   
     7     2    13 1   
     8     3     4 1   
     9     3     9 1   
    10     3    14 1   
    11     4     5 1   
    12     4    10 1   
    13     4    15 1   
    14     5     6 1   
    15     5    11 1   
    16     5    16 1   
    17     6    17 1   
    18     6    18 1   
    19     6    19 1   
    20     7    20 1   
    21     8    21 1   
    22     9    22 1   
    23    10    23 1   
    24    10    24 1   
@<TRIPOS>SUBSTRUCTURE
     1 DAG         1 TEMP              0 ****  ****    0 ROOT
