@<TRIPOS>MOLECULE
DAI
   53    57     1     0     0
SMALL
bcc


@<TRIPOS>ATOM
      1 O23          1.7420    -1.6760     1.5560 o          1 DAI      -0.578500
      2 C24          1.1890    -0.7190     1.0720 c          1 DAI       0.717500
      3 C28          1.4240    -0.1410    -0.3000 c5         1 DAI      -0.147700
      4 C13          1.0900    -1.1770    -1.4020 c6         1 DAI       0.046900
      5 C15         -0.3640    -1.5180    -1.2410 ca         1 DAI      -0.088300
      6 C16         -1.2200    -0.4200    -1.3650 ca         1 DAI      -0.069300
      7 C17         -2.5820    -0.5900    -1.1730 ca         1 DAI      -0.095500
      8 C18         -3.0820    -1.8550    -0.8740 ca         1 DAI      -0.128500
      9 C19         -2.2290    -2.9430    -0.7590 ca         1 DAI      -0.124500
     10 C14         -0.8600    -2.7740    -0.9370 ca         1 DAI      -0.109000
     11 C12          1.2600    -0.4350    -2.6950 ca         1 DAI      -0.088300
     12 C11          0.4290     0.6800    -2.8140 ca         1 DAI      -0.069300
     13 C9           0.5420     1.4940    -3.9320 ca         1 DAI      -0.095500
     14 C8           1.4620     1.1750    -4.9280 ca         1 DAI      -0.128500
     15 C7           2.2720     0.0550    -4.8100 ca         1 DAI      -0.124500
     16 C6           2.1760    -0.7530    -3.6810 ca         1 DAI      -0.109000
     17 C27          0.4730     1.0590    -0.3990 c5         1 DAI      -0.144700
     18 C10         -0.4960     0.8910    -1.6210 c6         1 DAI       0.071600
     19 C5          -1.4040     2.1010    -1.7680 c3         1 DAI       0.144400
     20 O4          -2.2220     1.9240    -2.8990 oh         1 DAI      -0.590800
     21 C26         -0.2360     1.0770     0.9420 c          1 DAI       0.717500
     22 O22         -1.0520     1.8780     1.3310 o          1 DAI      -0.586500
     23 N25          0.2100     0.0170     1.6960 n          1 DAI      -0.508400
     24 C21         -0.2620    -0.2670     3.0390 c3         1 DAI       0.104000
     25 C20          0.5230     0.4780     4.1090 c3         1 DAI      -0.096400
     26 C3           0.0590     0.0950     5.5080 c3         1 DAI      -0.073400
     27 C2           0.8070     0.8400     6.6070 c3         1 DAI      -0.074400
     28 C1           0.3560     0.4320     8.0030 c3         1 DAI      -0.089100
     29 H28          2.4710     0.1570    -0.3840 hc         1 DAI       0.096700
     30 H13          1.7410    -2.0480    -1.3330 hc         1 DAI       0.086700
     31 H17         -3.2660     0.2420    -1.2570 ha         1 DAI       0.140500
     32 H18         -4.1470    -1.9870    -0.7320 ha         1 DAI       0.131500
     33 H19         -2.6270    -3.9220    -0.5260 ha         1 DAI       0.132000
     34 H14         -0.1840    -3.6150    -0.8360 ha         1 DAI       0.135500
     35 H9          -0.0830     2.3670    -4.0510 ha         1 DAI       0.140500
     36 H8           1.5390     1.8080    -5.8020 ha         1 DAI       0.131500
     37 H7           2.9810    -0.1880    -5.5910 ha         1 DAI       0.132000
     38 H6           2.8160    -1.6200    -3.5710 ha         1 DAI       0.135500
     39 H27          1.0200     2.0000    -0.5060 hc         1 DAI       0.092700
     40 H51         -2.0040     2.2240    -0.8620 h1         1 DAI       0.036700
     41 H52         -0.7750     2.9980    -1.8540 h1         1 DAI       0.036700
     42 HO4         -2.8160     2.6790    -2.9560 ho         1 DAI       0.405000
     43 H211        -0.1880    -1.3440     3.1920 h1         1 DAI       0.066200
     44 H212        -1.3200    -0.0080     3.0860 h1         1 DAI       0.066200
     45 H201         0.4090     1.5560     3.9640 hc         1 DAI       0.049700
     46 H202         1.5880     0.2550     4.0000 hc         1 DAI       0.049700
     47 H31          0.1880    -0.9840     5.6470 hc         1 DAI       0.040200
     48 H32         -1.0140     0.2890     5.6040 hc         1 DAI       0.040200
     49 H21          0.6650     1.9170     6.4740 hc         1 DAI       0.038200
     50 H22          1.8810     0.6590     6.5000 hc         1 DAI       0.038200
     51 H11          0.9020     0.9760     8.7750 hc         1 DAI       0.032033
     52 H12         -0.7070     0.6310     8.1470 hc         1 DAI       0.032033
     53 H13A         0.5170    -0.6340     8.1720 hc         1 DAI       0.032033
@<TRIPOS>BOND
     1     1     2 2   
     2     2     3 1   
     3     2    23 1   
     4     3     4 1   
     5     3    17 1   
     6     3    29 1   
     7     4     5 1   
     8     4    11 1   
     9     4    30 1   
    10     5     6 ar  
    11     5    10 ar  
    12     6     7 ar  
    13     6    18 1   
    14     7     8 ar  
    15     7    31 1   
    16     8     9 ar  
    17     8    32 1   
    18     9    10 ar  
    19     9    33 1   
    20    10    34 1   
    21    11    12 ar  
    22    11    16 ar  
    23    12    13 ar  
    24    12    18 1   
    25    13    14 ar  
    26    13    35 1   
    27    14    15 ar  
    28    14    36 1   
    29    15    16 ar  
    30    15    37 1   
    31    16    38 1   
    32    17    18 1   
    33    17    21 1   
    34    17    39 1   
    35    18    19 1   
    36    19    20 1   
    37    19    40 1   
    38    19    41 1   
    39    20    42 1   
    40    21    22 2   
    41    21    23 1   
    42    23    24 1   
    43    24    25 1   
    44    24    43 1   
    45    24    44 1   
    46    25    26 1   
    47    25    45 1   
    48    25    46 1   
    49    26    27 1   
    50    26    47 1   
    51    26    48 1   
    52    27    28 1   
    53    27    49 1   
    54    27    50 1   
    55    28    51 1   
    56    28    52 1   
    57    28    53 1   
@<TRIPOS>SUBSTRUCTURE
     1 DAI         1 TEMP              0 ****  ****    0 ROOT
