@<TRIPOS>MOLECULE
DAI
   53    57     1     0     0
SMALL
No Charge or Current Charge


@<TRIPOS>ATOM
      1 O23          1.7560    -1.7310     1.6780 o          1 DAI      -0.503000
      2 C24          1.1780    -0.8060     1.1260 c          1 DAI       0.575000
      3 C28          1.4270    -0.2150    -0.2680 c5         1 DAI      -0.147700
      4 C13          1.1360    -1.2290    -1.4150 c6         1 DAI       0.046900
      5 C15         -0.3530    -1.5690    -1.3080 ca         1 DAI      -0.088300
      6 C16         -1.2260    -0.4630    -1.3960 ca         1 DAI      -0.069300
      7 C17         -2.6150    -0.6650    -1.2580 ca         1 DAI      -0.077500
      8 C18         -3.1120    -1.9660    -1.0520 ca         1 DAI      -0.110500
      9 C19         -2.2330    -3.0630    -0.9780 ca         1 DAI      -0.106500
     10 C14         -0.8470    -2.8670    -1.1030 ca         1 DAI      -0.091000
     11 C12          1.2910    -0.4280    -2.7100 ca         1 DAI      -0.088300
     12 C11          0.4440     0.6970    -2.8190 ca         1 DAI      -0.069300
     13 C9           0.5430     1.5260    -3.9580 ca         1 DAI      -0.077500
     14 C8           1.4630     1.2080    -4.9750 ca         1 DAI      -0.110500
     15 C7           2.2900     0.0750    -4.8610 ca         1 DAI      -0.106500
     16 C6           2.2090    -0.7470    -3.7240 ca         1 DAI      -0.091000
     17 C27          0.4590     1.0420    -0.3740 c5         1 DAI      -0.144700
     18 C10         -0.5140     0.9060    -1.6070 c6         1 DAI       0.071600
     19 C5          -1.4900     2.1330    -1.7560 c3         1 DAI       0.167600
     20 O4          -2.3680     2.0460    -2.8940 oh         1 DAI      -0.653000
     21 C26         -0.2490     1.1050     0.9910 c          1 DAI       0.575000
     22 O22         -0.9690     1.9850     1.4410 o          1 DAI      -0.511000
     23 N25          0.2300     0.0200     1.7150 n          1 DAI      -0.374400
     24 C21         -0.2700    -0.2580     3.0780 c3         1 DAI       0.104000
     25 C20          0.5650     0.4380     4.1720 c3         1 DAI      -0.096400
     26 C3           0.0470     0.1520     5.5980 c3         1 DAI      -0.073400
     27 C2           0.8820     0.8480     6.6950 c3         1 DAI      -0.074400
     28 C1           0.3660     0.5630     8.1180 c3         1 DAI      -0.089100
     29 H28          2.4900     0.0380    -0.3500 hc         1 DAI       0.096700
     30 H13          1.7850    -2.1160    -1.3750 hc         1 DAI       0.086700
     31 H17         -3.3130     0.1650    -1.3030 ha         1 DAI       0.122500
     32 H18         -4.1830    -2.1240    -0.9480 ha         1 DAI       0.113500
     33 H19         -2.6270    -4.0650    -0.8170 ha         1 DAI       0.114000
     34 H14         -0.1660    -3.7130    -1.0330 ha         1 DAI       0.117500
     35 H9          -0.0770     2.4110    -4.0670 ha         1 DAI       0.122500
     36 H8           1.5360     1.8450    -5.8540 ha         1 DAI       0.113500
     37 H7           2.9980    -0.1620    -5.6520 ha         1 DAI       0.114000
     38 H6           2.8550    -1.6170    -3.6300 ha         1 DAI       0.117500
     39 H27          0.9950     1.9870    -0.5210 hc         1 DAI       0.092700
     40 H51         -2.0900     2.2160    -0.8420 h1         1 DAI       0.036700
     41 H52         -0.8820     3.0450    -1.8230 h1         1 DAI       0.036700
     42 HO4         -2.9250     2.8550    -2.8910 ho         1 DAI       0.444000
     43 H211        -0.2640    -1.3420     3.2520 h1         1 DAI       0.066200
     44 H212        -1.3150     0.0720     3.1550 h1         1 DAI       0.066200
     45 H201         0.5570     1.5210     3.9950 hc         1 DAI       0.049700
     46 H202         1.6080     0.1070     4.0920 hc         1 DAI       0.049700
     47 H31          0.0540    -0.9320     5.7730 hc         1 DAI       0.040200
     48 H32         -0.9970     0.4820     5.6750 hc         1 DAI       0.040200
     49 H21          0.8750     1.9320     6.5240 hc         1 DAI       0.038200
     50 H22          1.9260     0.5180     6.6220 hc         1 DAI       0.038200
     51 H11          0.9880     1.0770     8.8600 hc         1 DAI       0.032033
     52 H12         -0.6670     0.9140     8.2340 hc         1 DAI       0.032033
     53 H13A         0.3930    -0.5120     8.3330 hc         1 DAI       0.032033
@<TRIPOS>BOND
     1     1     2 2   
     2     2     3 1   
     3     2    23 1   
     4     3     4 1   
     5     3    17 1   
     6     3    29 1   
     7     4     5 1   
     8     4    11 1   
     9     4    30 1   
    10     5     6 ar  
    11     5    10 ar  
    12     6     7 ar  
    13     6    18 1   
    14     7     8 ar  
    15     7    31 1   
    16     8     9 ar  
    17     8    32 1   
    18     9    10 ar  
    19     9    33 1   
    20    10    34 1   
    21    11    12 ar  
    22    11    16 ar  
    23    12    13 ar  
    24    12    18 1   
    25    13    14 ar  
    26    13    35 1   
    27    14    15 ar  
    28    14    36 1   
    29    15    16 ar  
    30    15    37 1   
    31    16    38 1   
    32    17    18 1   
    33    17    21 1   
    34    17    39 1   
    35    18    19 1   
    36    19    20 1   
    37    19    40 1   
    38    19    41 1   
    39    20    42 1   
    40    21    22 2   
    41    21    23 1   
    42    23    24 1   
    43    24    25 1   
    44    24    43 1   
    45    24    44 1   
    46    25    26 1   
    47    25    45 1   
    48    25    46 1   
    49    26    27 1   
    50    26    47 1   
    51    26    48 1   
    52    27    28 1   
    53    27    49 1   
    54    27    50 1   
    55    28    51 1   
    56    28    52 1   
    57    28    53 1   
@<TRIPOS>SUBSTRUCTURE
     1 DAI         1 TEMP              0 ****  ****    0 ROOT
