@<TRIPOS>MOLECULE
DAL
   12    11     1     0     0
SMALL
bcc


@<TRIPOS>ATOM
      1 N           -1.5950    -0.9480     0.0860 n8         1 DAL      -0.889800
      2 CA          -0.7050     0.1690     0.3770 c3         1 DAL       0.021500
      3 CB          -1.1600     1.4010    -0.3940 c3         1 DAL      -0.051100
      4 C            0.7650    -0.2000     0.0730 c          1 DAL       0.930600
      5 O            1.0480    -1.4140     0.0110 o          1 DAL      -0.841300
      6 OXT          1.5640     0.7500    -0.0420 o          1 DAL      -0.841300
      7 H           -1.1530    -1.8010     0.4020 hn         1 DAL       0.321300
      8 H2          -2.4510    -0.8480     0.6150 hn         1 DAL       0.321300
      9 HA          -0.7200     0.4330     1.4490 h1         1 DAL      -0.010300
     10 HB1         -1.0970     1.2340    -1.4710 hc         1 DAL       0.013033
     11 HB2         -2.1980     1.6450    -0.1580 hc         1 DAL       0.013033
     12 HB3         -0.5500     2.2680    -0.1470 hc         1 DAL       0.013033
@<TRIPOS>BOND
     1     1     2 1   
     2     1     7 1   
     3     1     8 1   
     4     2     3 1   
     5     2     4 1   
     6     2     9 1   
     7     3    10 1   
     8     3    11 1   
     9     3    12 1   
    10     4     5 1   
    11     4     6 1   
@<TRIPOS>SUBSTRUCTURE
     1 DAL         1 TEMP              0 ****  ****    0 ROOT
