@<TRIPOS>MOLECULE
DAL
   12    11     1     0     0
SMALL
No Charge or Current Charge


@<TRIPOS>ATOM
      1 N           -1.6460    -0.9720    -0.2190 n8         1 DAL      -0.889800
      2 CA          -0.6760     0.0600     0.3030 c3         1 DAL       0.021500
      3 CB          -1.1420     1.4710    -0.1310 c3         1 DAL      -0.051100
      4 C            0.8780    -0.1850     0.0130 c          1 DAL       0.930600
      5 O            1.5060    -0.9080     0.7830 o          1 DAL      -0.841300
      6 OXT          1.4090     0.3460    -0.9600 o          1 DAL      -0.841300
      7 H           -1.4280    -1.8820     0.2030 hn         1 DAL       0.321300
      8 H2          -2.5890    -0.7510     0.1170 hn         1 DAL       0.321300
      9 HA          -0.7870     0.0260     1.3960 h1         1 DAL      -0.010300
     10 HB1         -1.0930     1.5880    -1.2200 hc         1 DAL       0.013033
     11 HB2         -2.1750     1.6560     0.1870 hc         1 DAL       0.013033
     12 HB3         -0.5080     2.2400     0.3270 hc         1 DAL       0.013033
@<TRIPOS>BOND
     1     1     2 1   
     2     1     7 1   
     3     1     8 1   
     4     2     3 1   
     5     2     4 1   
     6     2     9 1   
     7     3    10 1   
     8     3    11 1   
     9     3    12 1   
    10     4     5 1   
    11     4     6 1   
@<TRIPOS>SUBSTRUCTURE
     1 DAL         1 TEMP              0 ****  ****    0 ROOT
