@<TRIPOS>MOLECULE
DAM
   13    12     1     0     0
SMALL
No Charge or Current Charge


@<TRIPOS>ATOM
      1 N            5.7060     5.6370     6.4970 nu         1 DAM      -0.829200
      2 CM           4.6170     6.4810     7.0090 c3         1 DAM       0.219100
      3 CA           6.9030     6.0560     5.8520 ce         1 DAM       0.034800
      4 CB           7.1420     7.3730     5.6460 c2         1 DAM      -0.481000
      5 C            7.8880     4.9300     5.4130 c          1 DAM       0.712200
      6 O            7.5830     3.7640     5.6430 o          1 DAM      -0.724000
      7 OXT          8.9350     5.2340     4.8520 o          1 DAM      -0.724000
      8 H            5.6050     4.6230     6.6130 hn         1 DAM       0.494000
      9 HM1          3.8330     5.8540     7.4530 h1         1 DAM       0.003700
     10 HM2          4.9940     7.1670     7.7780 h1         1 DAM       0.003700
     11 HM3          4.1740     7.0690     6.1940 h1         1 DAM       0.003700
     12 HB1          8.0530     7.7110     5.1530 ha         1 DAM       0.144000
     13 HB2          6.4470     8.1520     5.9570 ha         1 DAM       0.144000
@<TRIPOS>BOND
     1     1     2 1   
     2     1     3 1   
     3     1     8 1   
     4     2     9 1   
     5     2    10 1   
     6     2    11 1   
     7     3     4 2   
     8     3     5 1   
     9     4    12 1   
    10     4    13 1   
    11     5     6 1   
    12     5     7 1   
@<TRIPOS>SUBSTRUCTURE
     1 DAM         1 TEMP              0 ****  ****    0 ROOT
