@<TRIPOS>MOLECULE
DAM
   13    12     1     0     0
SMALL
abcg2


@<TRIPOS>ATOM
      1 N            5.6410     5.5860     6.3240 nu         1 DAM      -0.829200
      2 CM           4.6940     6.4490     6.9660 c3         1 DAM       0.219100
      3 CA           6.8180     6.0630     5.8220 ce         1 DAM       0.034800
      4 CB           7.0970     7.3680     5.6430 c2         1 DAM      -0.481000
      5 C            7.8320     4.9640     5.4600 c          1 DAM       0.712200
      6 O            7.5110     3.8080     5.8090 o          1 DAM      -0.724000
      7 OXT          8.8700     5.3120     4.8750 o          1 DAM      -0.724000
      8 H            5.6910     4.6290     6.6310 hn         1 DAM       0.494000
      9 HM1          3.8830     5.8540     7.3790 h1         1 DAM       0.003700
     10 HM2          5.1370     7.0390     7.7790 h1         1 DAM       0.003700
     11 HM3          4.2580     7.1580     6.2570 h1         1 DAM       0.003700
     12 HB1          8.0380     7.6620     5.2040 ha         1 DAM       0.144000
     13 HB2          6.4090     8.1580     5.9110 ha         1 DAM       0.144000
@<TRIPOS>BOND
     1     1     2 1   
     2     1     3 1   
     3     1     8 1   
     4     2     9 1   
     5     2    10 1   
     6     2    11 1   
     7     3     4 2   
     8     3     5 1   
     9     4    12 1   
    10     4    13 1   
    11     5     6 1   
    12     5     7 1   
@<TRIPOS>SUBSTRUCTURE
     1 DAM         1 TEMP              0 ****  ****    0 ROOT
