@<TRIPOS>MOLECULE
DAN
   36    36     1     0     0
SMALL
No Charge or Current Charge


@<TRIPOS>ATOM
      1 C1          42.9110    52.0900    45.5970 c          1 DAN       0.730200
      2 C2          42.8100    51.5470    47.0310 ce         1 DAN       0.039900
      3 C3          41.6360    51.1520    47.5920 c2         1 DAN      -0.388200
      4 C4          41.5300    50.6390    49.0050 c6         1 DAN       0.220500
      5 C5          42.7760    51.0270    49.8500 c6         1 DAN       0.031700
      6 C6          44.0430    50.7340    48.9950 c6         1 DAN       0.159300
      7 C7          45.3870    51.1000    49.7270 c3         1 DAN       0.196300
      8 C8          46.6590    50.6200    48.9460 c3         1 DAN       0.140300
      9 C9          48.0030    50.9570    49.6530 c3         1 DAN       0.118600
     10 C11         42.2600    49.6960    53.4540 c3         1 DAN      -0.186100
     11 N5          42.7940    50.2920    51.1420 ns         1 DAN      -0.509900
     12 O1A         41.8890    52.1790    44.9250 o          1 DAN      -0.697500
     13 O1B         44.0100    52.4180    45.1610 o          1 DAN      -0.697500
     14 O4          40.3480    51.1840    49.5810 oh         1 DAN      -0.641000
     15 O6          44.0050    51.4640    47.7390 os         1 DAN      -0.308100
     16 O7          45.4730    52.5220    49.9880 oh         1 DAN      -0.691000
     17 O8          46.6270    49.1920    48.7620 oh         1 DAN      -0.659000
     18 O9          48.1340    50.1960    50.8690 oh         1 DAN      -0.721000
     19 O10         41.1660    51.4560    52.2150 o          1 DAN      -0.594100
     20 H3          40.7030    51.2090    47.0320 ha         1 DAN       0.216000
     21 H4          41.4550    49.5430    48.9700 h1         1 DAN       0.001700
     22 H5          42.7480    52.1080    50.0530 h1         1 DAN       0.122700
     23 H6          44.0520    49.6600    48.7610 h1         1 DAN       0.044700
     24 H7          45.3830    50.5640    50.6860 h1         1 DAN       0.040700
     25 H8          46.6580    51.1250    47.9700 h1         1 DAN       0.092700
     26 H91         48.8290    50.7190    48.9700 h1         1 DAN       0.023700
     27 H92         48.0580    52.0340    49.8620 h1         1 DAN       0.023700
     28 H111        41.6090    49.9490    54.2980 hc         1 DAN       0.052700
     29 H112        42.1560    48.6440    53.1630 hc         1 DAN       0.052700
     30 H113        43.3200    49.7570    53.7270 hc         1 DAN       0.052700
     31 HN5         43.4400    49.5180    51.2500 hn         1 DAN       0.298500
     32 HO4         40.5530    51.2870    50.5430 ho         1 DAN       0.417000
     33 HO7         46.0780    52.6370    50.7550 ho         1 DAN       0.492000
     34 HO8         47.1430    48.8410    49.5250 ho         1 DAN       0.438000
     35 HO9         49.0020    50.4380    51.2730 ho         1 DAN       0.490000
     36 C10         42.0100    50.5740    52.2360 c          1 DAN       0.598100
@<TRIPOS>BOND
     1     1     2 1   
     2     1    12 1   
     3     1    13 1   
     4     2     3 2   
     5     2    15 1   
     6     3     4 1   
     7     3    20 1   
     8     4     5 1   
     9     4    14 1   
    10     4    21 1   
    11     5     6 1   
    12     5    11 1   
    13     5    22 1   
    14     6     7 1   
    15     6    15 1   
    16     6    23 1   
    17     7     8 1   
    18     7    16 1   
    19     7    24 1   
    20     8     9 1   
    21     8    17 1   
    22     8    25 1   
    23     9    18 1   
    24     9    26 1   
    25     9    27 1   
    26    10    28 1   
    27    10    29 1   
    28    10    30 1   
    29    10    36 1   
    30    11    31 1   
    31    11    36 1   
    32    14    32 1   
    33    16    33 1   
    34    17    34 1   
    35    18    35 1   
    36    19    36 2   
@<TRIPOS>SUBSTRUCTURE
     1 DAN         1 TEMP              0 ****  ****    0 ROOT
