@<TRIPOS>MOLECULE
DAN
   36    36     1     0     0
SMALL
abcg2


@<TRIPOS>ATOM
      1 C1          43.1730    52.0620    45.7100 c          1 DAN       0.730200
      2 C2          42.9470    51.4740    47.1050 ce         1 DAN       0.039900
      3 C3          41.7580    51.0580    47.5440 c2         1 DAN      -0.388200
      4 C4          41.5380    50.5330    48.9250 c6         1 DAN       0.220500
      5 C5          42.7230    50.9330    49.8080 c6         1 DAN       0.031700
      6 C6          44.0200    50.6440    49.0430 c6         1 DAN       0.159300
      7 C7          45.2800    50.9480    49.8420 c3         1 DAN       0.196300
      8 C8          46.5570    50.6180    49.0510 c3         1 DAN       0.140300
      9 C9          47.8150    51.1080    49.7500 c3         1 DAN       0.118600
     10 C11         42.4770    49.8560    53.4310 c3         1 DAN      -0.186100
     11 N5          42.6800    50.2380    51.0700 ns         1 DAN      -0.509900
     12 O1A         42.1540    52.2160    45.0140 o          1 DAN      -0.697500
     13 O1B         44.3500    52.3300    45.4170 o          1 DAN      -0.697500
     14 O4          40.3210    51.0530    49.4110 oh         1 DAN      -0.641000
     15 O6          44.0690    51.4160    47.8550 os         1 DAN      -0.308100
     16 O7          45.2510    52.3050    50.2180 oh         1 DAN      -0.691000
     17 O8          46.5580    49.2160    48.8730 oh         1 DAN      -0.659000
     18 O9          47.8390    50.6420    51.0800 oh         1 DAN      -0.721000
     19 O10         42.4120    52.0340    52.4250 o          1 DAN      -0.594100
     20 H3          40.9120    51.1070    46.8730 ha         1 DAN       0.216000
     21 H4          41.4880    49.4320    48.9000 h1         1 DAN       0.001700
     22 H5          42.6580    52.0020    50.0120 h1         1 DAN       0.122700
     23 H6          44.0350    49.5780    48.7730 h1         1 DAN       0.044700
     24 H7          45.2580    50.2940    50.7210 h1         1 DAN       0.040700
     25 H8          46.5260    51.1380    48.0840 h1         1 DAN       0.092700
     26 H91         48.6840    50.7530    49.1790 h1         1 DAN       0.023700
     27 H92         47.8420    52.2030    49.6990 h1         1 DAN       0.023700
     28 H111        42.4560    50.3930    54.3760 hc         1 DAN       0.052700
     29 H112        41.5840    49.2310    53.3670 hc         1 DAN       0.052700
     30 H113        43.3410    49.1910    53.4210 hc         1 DAN       0.052700
     31 HN5         42.7460    49.2310    51.0440 hn         1 DAN       0.298500
     32 HO4         40.1050    50.5970    50.2310 ho         1 DAN       0.417000
     33 HO7         45.7390    52.4010    51.0410 ho         1 DAN       0.492000
     34 HO8         47.2270    48.9930    48.2190 ho         1 DAN       0.438000
     35 HO9         48.6100    51.0150    51.5170 ho         1 DAN       0.490000
     36 C10         42.5220    50.8280    52.2760 c          1 DAN       0.598100
@<TRIPOS>BOND
     1     1     2 1   
     2     1    12 1   
     3     1    13 1   
     4     2     3 2   
     5     2    15 1   
     6     3     4 1   
     7     3    20 1   
     8     4     5 1   
     9     4    14 1   
    10     4    21 1   
    11     5     6 1   
    12     5    11 1   
    13     5    22 1   
    14     6     7 1   
    15     6    15 1   
    16     6    23 1   
    17     7     8 1   
    18     7    16 1   
    19     7    24 1   
    20     8     9 1   
    21     8    17 1   
    22     8    25 1   
    23     9    18 1   
    24     9    26 1   
    25     9    27 1   
    26    10    28 1   
    27    10    29 1   
    28    10    30 1   
    29    10    36 1   
    30    11    31 1   
    31    11    36 1   
    32    14    32 1   
    33    16    33 1   
    34    17    34 1   
    35    18    35 1   
    36    19    36 2   
@<TRIPOS>SUBSTRUCTURE
     1 DAN         1 TEMP              0 ****  ****    0 ROOT
