@<TRIPOS>MOLECULE
DAO
   37    36     1     0     0
SMALL
No Charge or Current Charge


@<TRIPOS>ATOM
      1 O1           0.6050    -1.0480    -6.4170 o          1 DAO      -0.744000
      2 O2           0.3260     1.0860    -6.4280 o          1 DAO      -0.744000
      3 C1           0.1250    -0.0230    -5.9580 c          1 DAO       0.716000
      4 C2          -0.7320    -0.1280    -4.6830 c3         1 DAO      -0.203400
      5 C3           0.1630    -0.0050    -3.4250 c3         1 DAO      -0.054400
      6 C4          -0.6300    -0.1010    -2.1020 c3         1 DAO      -0.079400
      7 C5           0.2650     0.0220    -0.8500 c3         1 DAO      -0.075400
      8 C6          -0.5280    -0.0740     0.4720 c3         1 DAO      -0.075400
      9 C7           0.3670     0.0490     1.7250 c3         1 DAO      -0.074400
     10 C8          -0.4270    -0.0470     3.0460 c3         1 DAO      -0.074400
     11 C9           0.4680     0.0760     4.2990 c3         1 DAO      -0.074400
     12 C10         -0.3250    -0.0200     5.6210 c3         1 DAO      -0.076400
     13 C11          0.5700     0.1030     6.8730 c3         1 DAO      -0.075400
     14 C12         -0.2220     0.0070     8.1920 c3         1 DAO      -0.088100
     15 H21         -1.2050    -1.1160    -4.6180 hc         1 DAO       0.014200
     16 H22         -1.4430     0.7060    -4.6280 hc         1 DAO       0.014200
     17 H31          0.6960     0.9540    -3.4550 hc         1 DAO       0.038200
     18 H32          0.9240    -0.7940    -3.4460 hc         1 DAO       0.038200
     19 H41         -1.1630    -1.0600    -2.0700 hc         1 DAO       0.023700
     20 H42         -1.3910     0.6890    -2.0800 hc         1 DAO       0.023700
     21 H51          0.7970     0.9810    -0.8810 hc         1 DAO       0.033700
     22 H52          1.0260    -0.7680    -0.8710 hc         1 DAO       0.033700
     23 H61         -1.0610    -1.0330     0.5030 hc         1 DAO       0.031700
     24 H62         -1.2890     0.7160     0.4940 hc         1 DAO       0.031700
     25 H71          0.8990     1.0080     1.6940 hc         1 DAO       0.035200
     26 H72          1.1280    -0.7410     1.7030 hc         1 DAO       0.035200
     27 H81         -0.9590    -1.0060     3.0770 hc         1 DAO       0.034700
     28 H82         -1.1870     0.7430     3.0680 hc         1 DAO       0.034700
     29 H91          1.0010     1.0350     4.2680 hc         1 DAO       0.035700
     30 H92          1.2290    -0.7140     4.2770 hc         1 DAO       0.035700
     31 H101        -0.8580    -0.9790     5.6520 hc         1 DAO       0.035700
     32 H102        -1.0860     0.7700     5.6420 hc         1 DAO       0.035700
     33 H111         1.1030     1.0620     6.8470 hc         1 DAO       0.035700
     34 H112         1.3310    -0.6870     6.8560 hc         1 DAO       0.035700
     35 H121         0.4540     0.0990     9.0510 hc         1 DAO       0.028367
     36 H122        -0.9690     0.8070     8.2550 hc         1 DAO       0.028367
     37 H123        -0.7390    -0.9580     8.2650 hc         1 DAO       0.028367
@<TRIPOS>BOND
     1     1     3 1   
     2     2     3 1   
     3     3     4 1   
     4     4     5 1   
     5     4    15 1   
     6     4    16 1   
     7     5     6 1   
     8     5    17 1   
     9     5    18 1   
    10     6     7 1   
    11     6    19 1   
    12     6    20 1   
    13     7     8 1   
    14     7    21 1   
    15     7    22 1   
    16     8     9 1   
    17     8    23 1   
    18     8    24 1   
    19     9    10 1   
    20     9    25 1   
    21     9    26 1   
    22    10    11 1   
    23    10    27 1   
    24    10    28 1   
    25    11    12 1   
    26    11    29 1   
    27    11    30 1   
    28    12    13 1   
    29    12    31 1   
    30    12    32 1   
    31    13    14 1   
    32    13    33 1   
    33    13    34 1   
    34    14    35 1   
    35    14    36 1   
    36    14    37 1   
@<TRIPOS>SUBSTRUCTURE
     1 DAO         1 TEMP              0 ****  ****    0 ROOT
