@<TRIPOS>MOLECULE
DAO
   37    36     1     0     0
SMALL
abcg2


@<TRIPOS>ATOM
      1 O1           1.2510    -0.1320    -5.9730 o          1 DAO      -0.744000
      2 O2          -0.7470    -0.0190    -6.9500 o          1 DAO      -0.744000
      3 C1           0.0060    -0.0640    -5.9520 c          1 DAO       0.716000
      4 C2          -0.6930    -0.0370    -4.5820 c3         1 DAO      -0.203400
      5 C3           0.2130    -0.0230    -3.3610 c3         1 DAO      -0.054400
      6 C4          -0.5680    -0.0150    -2.0520 c3         1 DAO      -0.079400
      7 C5           0.3200    -0.0000    -0.8140 c3         1 DAO      -0.075400
      8 C6          -0.4690    -0.0020     0.4890 c3         1 DAO      -0.075400
      9 C7           0.4100     0.0120     1.7330 c3         1 DAO      -0.074400
     10 C8          -0.3890     0.0010     3.0300 c3         1 DAO      -0.074400
     11 C9           0.4830     0.0180     4.2800 c3         1 DAO      -0.074400
     12 C10         -0.3240    -0.0050     5.5720 c3         1 DAO      -0.076400
     13 C11          0.5400     0.0130     6.8280 c3         1 DAO      -0.075400
     14 C12         -0.2840    -0.0200     8.1080 c3         1 DAO      -0.088100
     15 H21         -1.3650    -0.9030    -4.5280 hc         1 DAO       0.014200
     16 H22         -1.3590     0.8340    -4.5540 hc         1 DAO       0.014200
     17 H31          0.8680     0.8540    -3.3960 hc         1 DAO       0.038200
     18 H32          0.8760    -0.8930    -3.3810 hc         1 DAO       0.038200
     19 H41         -1.2240    -0.8930    -2.0140 hc         1 DAO       0.023700
     20 H42         -1.2330     0.8570    -2.0290 hc         1 DAO       0.023700
     21 H51          0.9720     0.8810    -0.8450 hc         1 DAO       0.033700
     22 H52          0.9870    -0.8700    -0.8360 hc         1 DAO       0.033700
     23 H61         -1.1200    -0.8840     0.5160 hc         1 DAO       0.031700
     24 H62         -1.1380     0.8660     0.5090 hc         1 DAO       0.031700
     25 H71          1.0570     0.8970     1.7110 hc         1 DAO       0.035200
     26 H72          1.0820    -0.8530     1.7130 hc         1 DAO       0.035200
     27 H81         -1.0330    -0.8850     3.0510 hc         1 DAO       0.034700
     28 H82         -1.0640     0.8650     3.0480 hc         1 DAO       0.034700
     29 H91          1.1210     0.9090     4.2660 hc         1 DAO       0.035700
     30 H92          1.1630    -0.8410     4.2600 hc         1 DAO       0.035700
     31 H101        -0.9630    -0.8950     5.5860 hc         1 DAO       0.035700
     32 H102        -1.0040     0.8550     5.5910 hc         1 DAO       0.035700
     33 H111         1.1710     0.9070     6.8190 hc         1 DAO       0.035700
     34 H112         1.2240    -0.8410     6.8090 hc         1 DAO       0.035700
     35 H121         0.3490    -0.0060     8.9970 hc         1 DAO       0.028367
     36 H122        -0.9540     0.8410     8.1660 hc         1 DAO       0.028367
     37 H123        -0.8990    -0.9200     8.1550 hc         1 DAO       0.028367
@<TRIPOS>BOND
     1     1     3 1   
     2     2     3 1   
     3     3     4 1   
     4     4     5 1   
     5     4    15 1   
     6     4    16 1   
     7     5     6 1   
     8     5    17 1   
     9     5    18 1   
    10     6     7 1   
    11     6    19 1   
    12     6    20 1   
    13     7     8 1   
    14     7    21 1   
    15     7    22 1   
    16     8     9 1   
    17     8    23 1   
    18     8    24 1   
    19     9    10 1   
    20     9    25 1   
    21     9    26 1   
    22    10    11 1   
    23    10    27 1   
    24    10    28 1   
    25    11    12 1   
    26    11    29 1   
    27    11    30 1   
    28    12    13 1   
    29    12    31 1   
    30    12    32 1   
    31    13    14 1   
    32    13    33 1   
    33    13    34 1   
    34    14    35 1   
    35    14    36 1   
    36    14    37 1   
@<TRIPOS>SUBSTRUCTURE
     1 DAO         1 TEMP              0 ****  ****    0 ROOT
