@<TRIPOS>MOLECULE
DAP
   36    38     1     0     0
SMALL
bcc


@<TRIPOS>ATOM
      1 N1           0.6400     0.0800    -0.6560 na         1 DAP      -0.161400
      2 C2          -0.3840    -0.1230     0.2320 cc         1 DAP      -0.010300
      3 C3          -1.5290    -0.4150    -0.4690 cd         1 DAP      -0.168200
      4 C4          -1.9090    -0.5820    -3.0380 ca         1 DAP      -0.085000
      5 C5          -1.2550    -0.4430    -4.2430 ca         1 DAP      -0.143000
      6 C6           0.1150    -0.1100    -4.3080 ca         1 DAP      -0.129900
      7 C7           0.8440     0.0760    -3.1440 ca         1 DAP      -0.092000
      8 C8           0.1790    -0.0570    -1.9310 ca         1 DAP      -0.054200
      9 C9          -1.1950    -0.3790    -1.8510 ca         1 DAP      -0.090800
     10 C10          0.8090     0.0370    -5.6160 ce         1 DAP       0.660800
     11 N2           2.0670    -0.1820    -5.6780 n2         1 DAP      -0.832100
     12 N3           0.0020     0.3600    -6.6710 nv         1 DAP      -0.962800
     13 C1          -0.1820    -0.0390     1.6740 ca         1 DAP      -0.016800
     14 C12         -1.2740     0.1550     2.5250 ca         1 DAP      -0.123000
     15 C13         -1.0990     0.2350     3.8930 ca         1 DAP      -0.102500
     16 C14          0.1700     0.1200     4.4600 ca         1 DAP      -0.192900
     17 C15          1.2590    -0.0790     3.6160 ca         1 DAP      -0.102500
     18 C16          1.0870    -0.1540     2.2440 ca         1 DAP      -0.123000
     19 C11          0.3400     0.2330     5.9350 ce         1 DAP       0.661800
     20 N4          -0.3640     0.9850     6.6920 n2         1 DAP      -0.842100
     21 N5           1.3620    -0.5060     6.4530 nv         1 DAP      -0.922800
     22 HN1          1.5680     0.3900    -0.4150 hn         1 DAP       0.301700
     23 H3          -2.4900    -0.6560    -0.0440 ha         1 DAP       0.156000
     24 H4          -2.9580    -0.8450    -3.0130 ha         1 DAP       0.135000
     25 H5          -1.8080    -0.6180    -5.1570 ha         1 DAP       0.135000
     26 H7           1.8950     0.3260    -3.1900 ha         1 DAP       0.155000
     27 HN2          2.4230    -0.0030    -6.6140 hn         1 DAP       0.369400
     28 HN31         0.4560     0.6120    -7.5350 hn         1 DAP       0.404300
     29 HN32        -0.8300     0.8980    -6.4860 hn         1 DAP       0.404300
     30 H2          -2.2700     0.2570     2.1140 ha         1 DAP       0.136000
     31 H1          -1.9670     0.3760     4.5250 ha         1 DAP       0.141500
     32 H8           2.2580    -0.1640     4.0230 ha         1 DAP       0.141500
     33 H6           1.9600    -0.3210     1.6250 ha         1 DAP       0.136000
     34 HN4         -1.0060     1.5480     6.1460 hn         1 DAP       0.389400
     35 HN51         1.4170    -0.5410     7.4590 hn         1 DAP       0.414300
     36 HN52         1.6110    -1.3670     5.9950 hn         1 DAP       0.414300
@<TRIPOS>BOND
     1     1     2 1   
     2     1     8 1   
     3     1    22 1   
     4     2     3 2   
     5     2    13 1   
     6     3     9 1   
     7     3    23 1   
     8     4     5 ar  
     9     4     9 ar  
    10     4    24 1   
    11     5     6 ar  
    12     5    25 1   
    13     6     7 ar  
    14     6    10 1   
    15     7     8 ar  
    16     7    26 1   
    17     8     9 ar  
    18    10    11 2   
    19    10    12 1   
    20    11    27 1   
    21    12    28 1   
    22    12    29 1   
    23    13    14 ar  
    24    13    18 ar  
    25    14    15 ar  
    26    14    30 1   
    27    15    16 ar  
    28    15    31 1   
    29    16    17 ar  
    30    16    19 1   
    31    17    18 ar  
    32    17    32 1   
    33    18    33 1   
    34    19    20 2   
    35    19    21 1   
    36    20    34 1   
    37    21    35 1   
    38    21    36 1   
@<TRIPOS>SUBSTRUCTURE
     1 DAP         1 TEMP              0 ****  ****    0 ROOT
