@<TRIPOS>MOLECULE
DAP
   36    38     1     0     0
SMALL
No Charge or Current Charge


@<TRIPOS>ATOM
      1 N1           0.7990     0.1110    -0.7110 na         1 DAP      -0.211700
      2 C2          -0.2200    -0.0040     0.2550 cc         1 DAP      -0.010300
      3 C3          -1.3910    -0.2080    -0.4620 cd         1 DAP      -0.218200
      4 C4          -1.9170    -0.3730    -2.9930 ca         1 DAP      -0.067000
      5 C5          -1.3060    -0.3230    -4.2650 ca         1 DAP      -0.125000
      6 C6           0.0980    -0.0980    -4.4020 ca         1 DAP      -0.129900
      7 C7           0.8860     0.0450    -3.2270 ca         1 DAP      -0.074000
      8 C8           0.2490    -0.0080    -1.9800 ca         1 DAP      -0.054200
      9 C9          -1.0990    -0.2060    -1.8740 ca         1 DAP      -0.090800
     10 C10          0.7590    -0.0730    -5.7520 ce         1 DAP       0.660800
     11 N2           2.0120    -0.1860    -5.9190 n2         1 DAP      -0.832100
     12 N3          -0.0070     0.1800    -6.8360 nv         1 DAP      -1.073200
     13 C1          -0.1100     0.0300     1.7200 ca         1 DAP      -0.016800
     14 C12         -1.2490     0.1000     2.5480 ca         1 DAP      -0.105000
     15 C13         -1.1220     0.1360     3.9480 ca         1 DAP      -0.084500
     16 C14          0.1510     0.0870     4.5620 ca         1 DAP      -0.192900
     17 C15          1.2920     0.0390     3.7290 ca         1 DAP      -0.084500
     18 C16          1.1610     0.0070     2.3290 ca         1 DAP      -0.105000
     19 C11          0.2900     0.1640     6.0490 ce         1 DAP       0.661800
     20 N4          -0.5990     0.6490     6.8120 n2         1 DAP      -0.842100
     21 N5           1.3410    -0.4530     6.6170 nv         1 DAP      -1.033200
     22 HN1          1.7820     0.2610    -0.5120 hn         1 DAP       0.352000
     23 H3          -2.3770    -0.3660    -0.0360 ha         1 DAP       0.206000
     24 H4          -2.9870    -0.5430    -2.8880 ha         1 DAP       0.117000
     25 H5          -1.9320    -0.4740    -5.1420 ha         1 DAP       0.117000
     26 H7           1.9610     0.2000    -3.2850 ha         1 DAP       0.137000
     27 HN2          2.1840    -0.3480    -6.9180 hn         1 DAP       0.369400
     28 HN31         0.4680     0.6190    -7.6170 hn         1 DAP       0.459500
     29 HN32        -0.9310     0.5440    -6.6360 hn         1 DAP       0.459500
     30 H2          -2.2450     0.1380     2.1190 ha         1 DAP       0.118000
     31 H1          -2.0260     0.1850     4.5520 ha         1 DAP       0.123500
     32 H8           2.2910     0.0380     4.1600 ha         1 DAP       0.123500
     33 H6           2.0600    -0.0370     1.7210 ha         1 DAP       0.118000
     34 HN4         -1.2950     1.1200     6.2190 hn         1 DAP       0.389400
     35 HN51         1.2100    -0.6520     7.6000 hn         1 DAP       0.469500
     36 HN52         1.7610    -1.1930     6.0680 hn         1 DAP       0.469500
@<TRIPOS>BOND
     1     1     2 1   
     2     1     8 1   
     3     1    22 1   
     4     2     3 2   
     5     2    13 1   
     6     3     9 1   
     7     3    23 1   
     8     4     5 ar  
     9     4     9 ar  
    10     4    24 1   
    11     5     6 ar  
    12     5    25 1   
    13     6     7 ar  
    14     6    10 1   
    15     7     8 ar  
    16     7    26 1   
    17     8     9 ar  
    18    10    11 2   
    19    10    12 1   
    20    11    27 1   
    21    12    28 1   
    22    12    29 1   
    23    13    14 ar  
    24    13    18 ar  
    25    14    15 ar  
    26    14    30 1   
    27    15    16 ar  
    28    15    31 1   
    29    16    17 ar  
    30    16    19 1   
    31    17    18 ar  
    32    17    32 1   
    33    18    33 1   
    34    19    20 2   
    35    19    21 1   
    36    20    34 1   
    37    21    35 1   
    38    21    36 1   
@<TRIPOS>SUBSTRUCTURE
     1 DAP         1 TEMP              0 ****  ****    0 ROOT
