@<TRIPOS>MOLECULE
DAR
   26    25     1     0     0
SMALL
bcc


@<TRIPOS>ATOM
      1 N           18.1370    -6.2050    31.2300 n8         1 DAR      -0.933800
      2 CA          18.9200    -6.8990    32.2390 c3         1 DAR       0.005500
      3 CB          18.5810    -8.3970    32.2400 c3         1 DAR      -0.062400
      4 CG          18.5160    -9.0770    30.8770 c3         1 DAR      -0.097400
      5 CD          19.8280    -9.1680    30.1050 c3         1 DAR       0.037300
      6 NE          20.3840    -7.8990    29.6640 nu         1 DAR      -0.376100
      7 CZ          19.8410    -7.1030    28.7560 cz         1 DAR       0.548300
      8 NH1         18.8480    -7.5230    27.9830 nv         1 DAR      -0.511200
      9 NH2         20.3570    -5.8940    28.5500 nv         1 DAR      -0.511200
     10 C           18.7620    -6.3710    33.6860 c          1 DAR       0.902600
     11 O           19.6260    -6.7510    34.5040 o          1 DAR      -0.812800
     12 OXT         17.7800    -5.6410    33.9300 o          1 DAR      -0.812800
     13 H           18.4510    -5.2430    31.1800 hn         1 DAR       0.341300
     14 H2          17.1810    -6.1410    31.5650 hn         1 DAR       0.341300
     15 HA          19.9750    -6.7840    31.9730 h1         1 DAR       0.006700
     16 HB2         19.2940    -8.9190    32.8830 hc         1 DAR       0.063700
     17 HB3         17.5990    -8.5290    32.7090 hc         1 DAR       0.063700
     18 HG2         18.1830   -10.1080    31.0240 hc         1 DAR       0.046700
     19 HG3         17.7490    -8.5980    30.2670 hc         1 DAR       0.046700
     20 HD2         20.5960    -9.6290    30.7260 h1         1 DAR       0.061700
     21 HD3         19.7080    -9.8280    29.2420 h1         1 DAR       0.061700
     22 HE          21.1650    -7.5330    30.1840 hn         1 DAR       0.321700
     23 HH11        18.3800    -6.8880    27.3590 hn         1 DAR       0.316950
     24 HH12        18.4080    -8.4150    28.1280 hn         1 DAR       0.316950
     25 HH21        21.0180    -5.5000    29.1960 hn         1 DAR       0.316950
     26 HH22        19.9240    -5.2540    27.9060 hn         1 DAR       0.316950
@<TRIPOS>BOND
     1     1     2 1   
     2     1    13 1   
     3     1    14 1   
     4     2     3 1   
     5     2    10 1   
     6     2    15 1   
     7     3     4 1   
     8     3    16 1   
     9     3    17 1   
    10     4     5 1   
    11     4    18 1   
    12     4    19 1   
    13     5     6 1   
    14     5    20 1   
    15     5    21 1   
    16     6     7 2   
    17     6    22 1   
    18     7     8 1   
    19     7     9 1   
    20     8    23 1   
    21     8    24 1   
    22     9    25 1   
    23     9    26 1   
    24    10    11 1   
    25    10    12 1   
@<TRIPOS>SUBSTRUCTURE
     1 DAR         1 TEMP              0 ****  ****    0 ROOT
