@<TRIPOS>MOLECULE
DAR
   26    25     1     0     0
SMALL
No Charge or Current Charge


@<TRIPOS>ATOM
      1 N           17.8910    -5.9850    31.6660 n8         1 DAR      -0.933800
      2 CA          18.7820    -6.9000    32.4780 c3         1 DAR       0.005500
      3 CB          18.3720    -8.3860    32.2740 c3         1 DAR      -0.062400
      4 CG          18.4140    -8.9320    30.8180 c3         1 DAR      -0.097400
      5 CD          19.8230    -9.0250    30.1820 c3         1 DAR       0.037300
      6 NE          20.2690    -7.7320    29.6340 nu         1 DAR      -0.376100
      7 CZ          19.9520    -7.1690    28.4690 cz         1 DAR       0.548300
      8 NH1         19.1750    -7.7810    27.5890 nv         1 DAR      -0.511200
      9 NH2         20.4440    -5.9840    28.1540 nv         1 DAR      -0.511200
     10 C           18.9140    -6.5820    34.0360 c          1 DAR       0.902600
     11 O           20.0330    -6.3940    34.5030 o          1 DAR      -0.812800
     12 OXT         17.8900    -6.4260    34.6950 o          1 DAR      -0.812800
     13 H           18.2120    -5.0170    31.7780 hn         1 DAR       0.341300
     14 H2          16.9560    -5.9810    32.0880 hn         1 DAR       0.341300
     15 HA          19.7910    -6.7780    32.0650 h1         1 DAR       0.006700
     16 HB2         19.0230    -9.0150    32.8950 hc         1 DAR       0.063700
     17 HB3         17.3570    -8.5260    32.6680 hc         1 DAR       0.063700
     18 HG2         18.0010    -9.9480    30.8440 hc         1 DAR       0.046700
     19 HG3         17.7410    -8.3540    30.1730 hc         1 DAR       0.046700
     20 HD2         20.5420    -9.3830    30.9310 h1         1 DAR       0.061700
     21 HD3         19.8020    -9.7720    29.3770 h1         1 DAR       0.061700
     22 HE          20.8570    -7.1840    30.2510 hn         1 DAR       0.321700
     23 HH11        18.9380    -7.3680    26.6990 hn         1 DAR       0.316950
     24 HH12        18.7600    -8.6810    27.7820 hn         1 DAR       0.316950
     25 HH21        21.0400    -5.4620    28.7800 hn         1 DAR       0.316950
     26 HH22        20.2310    -5.5310    27.2760 hn         1 DAR       0.316950
@<TRIPOS>BOND
     1     1     2 1   
     2     1    13 1   
     3     1    14 1   
     4     2     3 1   
     5     2    10 1   
     6     2    15 1   
     7     3     4 1   
     8     3    16 1   
     9     3    17 1   
    10     4     5 1   
    11     4    18 1   
    12     4    19 1   
    13     5     6 1   
    14     5    20 1   
    15     5    21 1   
    16     6     7 2   
    17     6    22 1   
    18     7     8 1   
    19     7     9 1   
    20     8    23 1   
    21     8    24 1   
    22     9    25 1   
    23     9    26 1   
    24    10    11 1   
    25    10    12 1   
@<TRIPOS>SUBSTRUCTURE
     1 DAR         1 TEMP              0 ****  ****    0 ROOT
