@<TRIPOS>MOLECULE
DAS
   14    13     1     0     0
SMALL
No Charge or Current Charge


@<TRIPOS>ATOM
      1 N           17.5070    59.6500    30.3390 n8         1 DAS      -0.849800
      2 CA          18.8660    59.9110    30.9350 c3         1 DAS       0.062500
      3 C           20.0670    60.3360    29.9520 c          1 DAS       0.963600
      4 O           19.8080    60.8950    28.8870 o          1 DAS      -0.867300
      5 CB          18.7550    60.8520    32.1680 c3         1 DAS      -0.167400
      6 CG          18.6750    62.3340    31.7370 c          1 DAS       0.939600
      7 OD1         17.5760    62.8590    31.6000 o          1 DAS      -0.867800
      8 OD2         19.7220    62.9560    31.5970 o          1 DAS      -0.867800
      9 OXT         21.1990    59.9200    30.1970 o          1 DAS      -0.867300
     10 H           16.8900    59.2740    31.0640 hn         1 DAS       0.292800
     11 H2          17.5850    58.9030    29.6420 hn         1 DAS       0.292800
     12 HA          19.1380    58.9270    31.3420 h1         1 DAS      -0.058300
     13 HB2         17.8530    60.5500    32.7170 hc         1 DAS      -0.002800
     14 HB3         19.6790    60.6760    32.7330 hc         1 DAS      -0.002800
@<TRIPOS>BOND
     1     1     2 1   
     2     1    10 1   
     3     1    11 1   
     4     2     3 1   
     5     2     5 1   
     6     2    12 1   
     7     3     4 1   
     8     3     9 1   
     9     5     6 1   
    10     5    13 1   
    11     5    14 1   
    12     6     7 1   
    13     6     8 1   
@<TRIPOS>SUBSTRUCTURE
     1 DAS         1 TEMP              0 ****  ****    0 ROOT
