@<TRIPOS>MOLECULE
DAS
   14    13     1     0     0
SMALL
bcc


@<TRIPOS>ATOM
      1 N           17.6380    59.9540    30.1940 n8         1 DAS      -0.849800
      2 CA          18.8850    59.8810    30.9470 c3         1 DAS       0.062500
      3 C           20.1250    60.1220    30.0550 c          1 DAS       0.963600
      4 O           19.9480    60.2140    28.8230 o          1 DAS      -0.867300
      5 CB          18.8010    60.8150    32.1520 c3         1 DAS      -0.167400
      6 CG          18.4740    62.2790    31.8020 c          1 DAS       0.939600
      7 OD1         17.5500    62.8220    32.4460 o          1 DAS      -0.867800
      8 OD2         19.1710    62.8220    30.9190 o          1 DAS      -0.867800
      9 OXT         21.2270    60.1260    30.6440 o          1 DAS      -0.867300
     10 H           16.9060    59.4840    30.7130 hn         1 DAS       0.292800
     11 H2          17.7450    59.4510    29.3240 hn         1 DAS       0.292800
     12 HA          19.0460    58.8670    31.3570 h1         1 DAS      -0.058300
     13 HB2         18.0480    60.4310    32.8480 hc         1 DAS      -0.002800
     14 HB3         19.7550    60.7770    32.6860 hc         1 DAS      -0.002800
@<TRIPOS>BOND
     1     1     2 1   
     2     1    10 1   
     3     1    11 1   
     4     2     3 1   
     5     2     5 1   
     6     2    12 1   
     7     3     4 1   
     8     3     9 1   
     9     5     6 1   
    10     5    13 1   
    11     5    14 1   
    12     6     7 1   
    13     6     8 1   
@<TRIPOS>SUBSTRUCTURE
     1 DAS         1 TEMP              0 ****  ****    0 ROOT
