@<TRIPOS>MOLECULE
DAU
   60    62     1     0     0
SMALL
bcc


@<TRIPOS>ATOM
      1 O6          -4.1970     3.6410     2.6370 oh         1 DAU      -0.564800
      2 C6          -4.1810     3.8360     1.2430 c3         1 DAU       0.145400
      3 C5          -3.7180     2.5590     0.5720 c6         1 DAU       0.159100
      4 O5          -4.6940     1.5670     0.8570 os         1 DAU      -0.412600
      5 C4          -3.5610     2.7510    -0.9380 c6         1 DAU       0.125100
      6 O4          -2.4950     3.6470    -1.1440 oh         1 DAU      -0.606800
      7 C3          -3.3210     1.4140    -1.6250 c6         1 DAU       0.080100
      8 O3          -3.3050     1.6520    -3.0140 oh         1 DAU      -0.643800
      9 C2          -4.4240     0.4350    -1.2350 c6         1 DAU       0.081100
     10 O2          -4.3210    -0.7870    -1.9110 oh         1 DAU      -0.674800
     11 C1          -4.4770     0.3140     0.2950 c6         1 DAU       0.376900
     12 O1          -3.2830    -0.2050     0.8300 os         1 DAU      -0.589200
     13 P2          -2.9730    -1.8220     0.8620 p5         1 DAU       1.491800
     14 O3P         -4.0660    -2.5340     1.5870 o          1 DAU      -0.841000
     15 O4P         -2.5910    -2.2450    -0.5340 o          1 DAU      -0.841000
     16 OPP         -1.6540    -1.6670     1.8040 os         1 DAU      -0.681800
     17 P           -0.3760    -2.7030     1.8620 p5         1 DAU       1.462800
     18 O1P          0.3310    -2.4370     3.1520 o          1 DAU      -0.849000
     19 O2P         -0.8110    -4.0860     1.4970 o          1 DAU      -0.849000
     20 O7           0.4670    -2.0270     0.6270 os         1 DAU      -0.552200
     21 C7           1.7450    -2.5550     0.3420 c3         1 DAU       0.211400
     22 C8           2.2720    -1.9280    -0.9240 c5         1 DAU       0.143100
     23 O8           2.4660    -0.5380    -0.7290 os         1 DAU      -0.357600
     24 C9           3.6250    -2.4960    -1.3520 c5         1 DAU       0.104100
     25 O9           3.4080    -3.6060    -2.1860 oh         1 DAU      -0.575800
     26 C10          4.2860    -1.2990    -2.0360 c5         1 DAU      -0.155400
     27 C11          3.5520    -0.0740    -1.4790 c5         1 DAU       0.323500
     28 N11          4.3490     0.8350    -0.6580 n          1 DAU      -0.377000
     29 C61          4.4090     2.1620    -0.9980 cc         1 DAU       0.075600
     30 C51          5.0830     3.0940    -0.3030 cd         1 DAU      -0.300400
     31 C5A          5.1380     4.5320    -0.7050 c3         1 DAU      -0.007900
     32 C21          4.9810     0.3670     0.4700 c          1 DAU       0.830500
     33 O21          4.9530    -0.7930     0.8240 o          1 DAU      -0.608500
     34 N31          5.6620     1.3240     1.1770 ns         1 DAU      -0.603500
     35 C41          5.7850     2.6720     0.8920 c          1 DAU       0.739700
     36 O41          6.4360     3.4020     1.6160 o          1 DAU      -0.639500
     37 HO6         -4.4780     4.4630     3.0480 ho         1 DAU       0.374000
     38 HC61        -5.1760     4.0980     0.8560 h1         1 DAU       0.009700
     39 HC62        -3.5000     4.6440     0.9560 h1         1 DAU       0.009700
     40 HC5         -2.7440     2.2700     0.9920 h1         1 DAU       0.101700
     41 HC4         -4.5030     3.1670    -1.3320 h1         1 DAU       0.017700
     42 HO4         -2.4220     3.8120    -2.0890 ho         1 DAU       0.402000
     43 HC3         -2.3500     1.0170    -1.2900 h1         1 DAU       0.088700
     44 HO3         -3.1470     0.8110    -3.4560 ho         1 DAU       0.423000
     45 HC2         -5.3850     0.8710    -1.5360 h1         1 DAU       0.038700
     46 HO2         -3.5910    -1.3300    -1.5240 ho         1 DAU       0.491000
     47 HC1         -5.3320    -0.3050     0.5940 h2         1 DAU       0.079700
     48 HC51         2.4470    -2.3610     1.1620 h1         1 DAU       0.029700
     49 HC52         1.7050    -3.6400     0.1880 h1         1 DAU       0.029700
     50 H4'C         1.5520    -2.0910    -1.7400 h1         1 DAU       0.083700
     51 H3'C         4.2020    -2.7850    -0.4690 h1         1 DAU       0.067700
     52 H3'O         4.2380    -4.0830    -2.2740 ho         1 DAU       0.387000
     53 HC21         5.3640    -1.2540    -1.8910 hc         1 DAU       0.051700
     54 HC22         4.1000    -1.3560    -3.1100 hc         1 DAU       0.051700
     55 H1'C         3.1990     0.5490    -2.3050 h2         1 DAU       0.048700
     56 H61C         3.8680     2.4260    -1.8970 h4         1 DAU       0.151000
     57 H5A1         4.7580     5.1800     0.0850 hc         1 DAU       0.036367
     58 H5A2         6.1600     4.8470    -0.9170 hc         1 DAU       0.036367
     59 H5A3         4.5420     4.7080    -1.5990 hc         1 DAU       0.036367
     60 H31N         6.1310     0.9900     2.0100 hn         1 DAU       0.336500
@<TRIPOS>BOND
     1     1     2 1   
     2     1    37 1   
     3     2     3 1   
     4     2    38 1   
     5     2    39 1   
     6     3     4 1   
     7     3     5 1   
     8     3    40 1   
     9     4    11 1   
    10     5     6 1   
    11     5     7 1   
    12     5    41 1   
    13     6    42 1   
    14     7     8 1   
    15     7     9 1   
    16     7    43 1   
    17     8    44 1   
    18     9    10 1   
    19     9    11 1   
    20     9    45 1   
    21    10    46 1   
    22    11    12 1   
    23    11    47 1   
    24    12    13 1   
    25    13    14 1   
    26    13    15 1   
    27    13    16 1   
    28    16    17 1   
    29    17    18 1   
    30    17    19 1   
    31    17    20 1   
    32    20    21 1   
    33    21    22 1   
    34    21    48 1   
    35    21    49 1   
    36    22    23 1   
    37    22    24 1   
    38    22    50 1   
    39    23    27 1   
    40    24    25 1   
    41    24    26 1   
    42    24    51 1   
    43    25    52 1   
    44    26    27 1   
    45    26    53 1   
    46    26    54 1   
    47    27    28 1   
    48    27    55 1   
    49    28    29 1   
    50    28    32 1   
    51    29    30 2   
    52    29    56 1   
    53    30    31 1   
    54    30    35 1   
    55    31    57 1   
    56    31    58 1   
    57    31    59 1   
    58    32    33 2   
    59    32    34 1   
    60    34    35 1   
    61    34    60 1   
    62    35    36 2   
@<TRIPOS>SUBSTRUCTURE
     1 DAU         1 TEMP              0 ****  ****    0 ROOT
