@<TRIPOS>MOLECULE
DAU
   60    62     1     0     0
SMALL
No Charge or Current Charge


@<TRIPOS>ATOM
      1 O6          -2.8340     3.2300     3.3940 oh         1 DAU      -0.687000
      2 C6          -2.1950     3.6210     2.1640 c3         1 DAU       0.168600
      3 C5          -1.9470     2.4310     1.1780 c6         1 DAU       0.182300
      4 O5          -3.2200     1.7670     0.9280 os         1 DAU      -0.459000
      5 C4          -1.3200     2.9050    -0.1700 c6         1 DAU       0.148300
      6 O4          -0.0360     3.5200     0.0040 oh         1 DAU      -0.729000
      7 C3          -1.1780     1.6920    -1.1280 c6         1 DAU       0.103300
      8 O3          -0.6510     2.1010    -2.4020 oh         1 DAU      -0.706000
      9 C2          -2.5610     1.0170    -1.3350 c6         1 DAU       0.104300
     10 O2          -2.4420    -0.0370    -2.3300 oh         1 DAU      -0.797000
     11 C1          -3.1450     0.5970     0.0830 c6         1 DAU       0.423300
     12 O1          -2.3710    -0.3840     0.7790 os         1 DAU      -0.612400
     13 P2          -2.6280    -1.9260     0.4390 p5         1 DAU       1.491800
     14 O3P         -4.0330    -2.2730     0.7970 o          1 DAU      -0.841000
     15 O4P         -2.3000    -2.1450    -0.9980 o          1 DAU      -0.841000
     16 OPP         -1.5670    -2.4950     1.4490 os         1 DAU      -0.681800
     17 P           -1.2320    -4.0190     1.2320 p5         1 DAU       1.462800
     18 O1P         -0.6210    -4.5900     2.4690 o          1 DAU      -0.849000
     19 O2P         -2.3900    -4.8590     0.8060 o          1 DAU      -0.849000
     20 O7          -0.1260    -3.9020     0.0690 os         1 DAU      -0.575400
     21 C7           1.1870    -3.4180     0.3850 c3         1 DAU       0.234600
     22 C8           1.6550    -2.4770    -0.7540 c5         1 DAU       0.166300
     23 O8           1.2690    -1.1120    -0.4940 os         1 DAU      -0.404000
     24 C9           3.1990    -2.3420    -0.8900 c5         1 DAU       0.127300
     25 O9           3.8260    -3.4890    -1.4720 oh         1 DAU      -0.698000
     26 C10          3.2830    -1.1070    -1.8240 c5         1 DAU      -0.155400
     27 C11          2.0170    -0.2920    -1.4100 c5         1 DAU       0.346700
     28 N11          2.4870     0.9970    -0.8310 n          1 DAU      -0.310000
     29 C61          2.5610     2.1040    -1.6800 cc         1 DAU       0.025600
     30 C51          2.9710     3.3280    -1.2020 cd         1 DAU      -0.300400
     31 C5A          3.0690     4.5690    -2.0590 c3         1 DAU      -0.007900
     32 C21          2.8500     1.0990     0.5310 c          1 DAU       0.621000
     33 O21          2.8650     0.1710     1.3220 o          1 DAU      -0.533000
     34 N31          3.2430     2.3330     0.9450 ns         1 DAU      -0.469500
     35 C41          3.3450     3.4780     0.2250 c          1 DAU       0.597200
     36 O41          3.7260     4.5180     0.7390 o          1 DAU      -0.564000
     37 HO6         -3.0000     4.0540     3.9040 ho         1 DAU       0.473000
     38 HC61        -2.8110     4.3700     1.6480 h1         1 DAU       0.009700
     39 HC62        -1.2290     4.0930     2.3880 h1         1 DAU       0.009700
     40 HC5         -1.2610     1.7250     1.6690 h1         1 DAU       0.101700
     41 HC4         -2.0070     3.6300    -0.6300 h1         1 DAU       0.017700
     42 HO4          0.3980     3.4140    -0.8760 ho         1 DAU       0.501000
     43 HC3         -0.5080     0.9560    -0.6570 h1         1 DAU       0.088700
     44 HO3         -1.0700     1.4690    -3.0350 ho         1 DAU       0.462000
     45 HC2         -3.2410     1.7860    -1.7310 h1         1 DAU       0.038700
     46 HO2         -2.3330    -0.9230    -1.8310 ho         1 DAU       0.590000
     47 HC1         -4.1700     0.2190    -0.0610 h2         1 DAU       0.079700
     48 HC51         1.2110    -2.8730     1.3380 h1         1 DAU       0.029700
     49 HC52         1.8820    -4.2640     0.4590 h1         1 DAU       0.029700
     50 H4'C         1.2090    -2.8080    -1.7030 h1         1 DAU       0.083700
     51 H3'C         3.6410    -2.1170     0.0930 h1         1 DAU       0.067700
     52 H3'O         4.7810    -3.2730    -1.5820 ho         1 DAU       0.486000
     53 HC21         4.2230    -0.5560    -1.7000 hc         1 DAU       0.051700
     54 HC22         3.2150    -1.3910    -2.8810 hc         1 DAU       0.051700
     55 H1'C         1.4000    -0.0570    -2.2870 h2         1 DAU       0.048700
     56 H61C         2.2670     1.8940    -2.7060 h4         1 DAU       0.201000
     57 H5A1         2.4270     5.3700    -1.6720 hc         1 DAU       0.036367
     58 H5A2         4.0980     4.9480    -2.0920 hc         1 DAU       0.036367
     59 H5A3         2.7590     4.3690    -3.0920 hc         1 DAU       0.036367
     60 H31N         3.5010     2.4030     1.9150 hn         1 DAU       0.336500
@<TRIPOS>BOND
     1     1     2 1   
     2     1    37 1   
     3     2     3 1   
     4     2    38 1   
     5     2    39 1   
     6     3     4 1   
     7     3     5 1   
     8     3    40 1   
     9     4    11 1   
    10     5     6 1   
    11     5     7 1   
    12     5    41 1   
    13     6    42 1   
    14     7     8 1   
    15     7     9 1   
    16     7    43 1   
    17     8    44 1   
    18     9    10 1   
    19     9    11 1   
    20     9    45 1   
    21    10    46 1   
    22    11    12 1   
    23    11    47 1   
    24    12    13 1   
    25    13    14 1   
    26    13    15 1   
    27    13    16 1   
    28    16    17 1   
    29    17    18 1   
    30    17    19 1   
    31    17    20 1   
    32    20    21 1   
    33    21    22 1   
    34    21    48 1   
    35    21    49 1   
    36    22    23 1   
    37    22    24 1   
    38    22    50 1   
    39    23    27 1   
    40    24    25 1   
    41    24    26 1   
    42    24    51 1   
    43    25    52 1   
    44    26    27 1   
    45    26    53 1   
    46    26    54 1   
    47    27    28 1   
    48    27    55 1   
    49    28    29 1   
    50    28    32 1   
    51    29    30 2   
    52    29    56 1   
    53    30    31 1   
    54    30    35 1   
    55    31    57 1   
    56    31    58 1   
    57    31    59 1   
    58    32    33 2   
    59    32    34 1   
    60    34    35 1   
    61    34    60 1   
    62    35    36 2   
@<TRIPOS>SUBSTRUCTURE
     1 DAU         1 TEMP              0 ****  ****    0 ROOT
