@<TRIPOS>MOLECULE
DAV
   19    18     1     0     0
SMALL
No Charge or Current Charge


@<TRIPOS>ATOM
      1 OT1         -2.8110     0.0640    -1.1040 o          1 DAV      -0.716500
      2 OT2         -2.7870     0.5580     0.9940 o          1 DAV      -0.716500
      3 CB           0.2040     0.2270    -0.0700 c3         1 DAV      -0.046400
      4 CG           1.5810    -0.4560     0.0750 c3         1 DAV      -0.112400
      5 CD           2.7490     0.5130    -0.1670 c3         1 DAV       0.095600
      6 NE           4.0660    -0.1960    -0.0150 nz         1 DAV      -0.975000
      7 C           -2.3150     0.0080     0.0100 c          1 DAV       0.721000
      8 CA          -0.9810    -0.7390     0.1710 c3         1 DAV      -0.213400
      9 HCB1         0.1400     1.0620     0.6400 hc         1 DAV       0.055700
     10 HCB2         0.1200     0.6580    -1.0760 hc         1 DAV       0.055700
     11 HCG1         1.6490    -1.2880    -0.6380 hc         1 DAV       0.051200
     12 HCG2         1.6690    -0.8830     1.0810 hc         1 DAV       0.051200
     13 HCD1         2.6960     1.3370     0.5530 hx         1 DAV       0.100700
     14 HCD2         2.6760     0.9300    -1.1770 hx         1 DAV       0.100700
     15 HT1          4.2030    -0.6010     0.9240 hn         1 DAV       0.500333
     16 HT2          4.8780     0.4240    -0.1700 hn         1 DAV       0.500333
     17 HT3          4.1840    -0.9780    -0.6780 hn         1 DAV       0.500333
     18 HCA1        -0.8890    -1.5250    -0.5890 hc         1 DAV       0.023200
     19 HCA2        -0.8680    -1.1040     1.1990 hc         1 DAV       0.023200
@<TRIPOS>BOND
     1     1     7 1   
     2     2     7 1   
     3     3     4 1   
     4     3     8 1   
     5     3     9 1   
     6     3    10 1   
     7     4     5 1   
     8     4    11 1   
     9     4    12 1   
    10     5     6 1   
    11     5    13 1   
    12     5    14 1   
    13     6    15 1   
    14     6    16 1   
    15     6    17 1   
    16     7     8 1   
    17     8    18 1   
    18     8    19 1   
@<TRIPOS>SUBSTRUCTURE
     1 DAV         1 TEMP              0 ****  ****    0 ROOT
