@<TRIPOS>MOLECULE
DAV
   19    18     1     0     0
SMALL
abcg2


@<TRIPOS>ATOM
      1 OT1         -3.2990    -0.8110    -0.0820 o          1 DAV      -0.716500
      2 OT2         -2.3900     1.2180     0.0410 o          1 DAV      -0.716500
      3 CB           0.2430     0.2810    -0.0010 c3         1 DAV      -0.046400
      4 CG           1.5790    -0.4550     0.0010 c3         1 DAV      -0.112400
      5 CD           2.7380     0.5200     0.0220 c3         1 DAV       0.095600
      6 NE           4.0430    -0.1950     0.0050 nz         1 DAV      -0.975000
      7 C           -2.3300    -0.0250    -0.0220 c          1 DAV       0.721000
      8 CA          -0.9360    -0.6790    -0.0210 c3         1 DAV      -0.213400
      9 HCB1         0.1830     0.9260     0.8790 hc         1 DAV       0.055700
     10 HCB2         0.1970     0.9450    -0.8690 hc         1 DAV       0.055700
     11 HCG1         1.6520    -1.0930    -0.8850 hc         1 DAV       0.051200
     12 HCG2         1.6390    -1.1140     0.8720 hc         1 DAV       0.051200
     13 HCD1         2.7300     1.1350     0.9200 hx         1 DAV       0.100700
     14 HCD2         2.7300     1.1740    -0.8470 hx         1 DAV       0.100700
     15 HT1          4.1430    -0.8210     0.8040 hn         1 DAV       0.500333
     16 HT2          4.8290     0.4520     0.0340 hn         1 DAV       0.500333
     17 HT3          4.1520    -0.7600    -0.8360 hn         1 DAV       0.500333
     18 HCA1        -0.8630    -1.3340    -0.8960 hc         1 DAV       0.023200
     19 HCA2        -0.8750    -1.3520     0.8430 hc         1 DAV       0.023200
@<TRIPOS>BOND
     1     1     7 1   
     2     2     7 1   
     3     3     4 1   
     4     3     8 1   
     5     3     9 1   
     6     3    10 1   
     7     4     5 1   
     8     4    11 1   
     9     4    12 1   
    10     5     6 1   
    11     5    13 1   
    12     5    14 1   
    13     6    15 1   
    14     6    16 1   
    15     6    17 1   
    16     7     8 1   
    17     8    18 1   
    18     8    19 1   
@<TRIPOS>SUBSTRUCTURE
     1 DAV         1 TEMP              0 ****  ****    0 ROOT
