@<TRIPOS>MOLECULE
DAW
   57    59     1     0     0
SMALL
No Charge or Current Charge


@<TRIPOS>ATOM
      1 N1          -8.3600     0.0030    -0.3280 n8         1 DAW      -1.011100
      2 N3           0.6340    -4.5060    -0.5630 nc         1 DAW      -0.347000
      3 C4          -3.1540     0.5160    -0.8560 ca         1 DAW      -0.100600
      4 C5          -4.0120     1.4020    -1.5480 ca         1 DAW      -0.094500
      5 C6          -5.3420     1.5940    -1.1370 ca         1 DAW      -0.019000
      6 C7          -1.7240     0.3380    -1.3330 c          1 DAW       0.604700
      7 C8           0.4710    -0.8010    -0.8850 c3         1 DAW       0.246300
      8 C10          1.9670     1.2180    -0.4960 ca         1 DAW      -0.077500
      9 C13          2.3190     0.5420     2.2070 ca         1 DAW      -0.109500
     10 C15          0.7640    -2.2780    -0.7830 cd         1 DAW      -0.197300
     11 S1          -7.5450     1.1410     0.5100 sy         1 DAW       1.128600
     12 O1          -8.0810     2.3970    -0.0100 o          1 DAW      -0.540000
     13 O2          -7.7240     0.7340     1.9010 o          1 DAW      -0.540000
     14 C1          -5.8430     0.8990    -0.0190 ca         1 DAW      -0.248500
     15 C2          -5.0030     0.0100     0.6790 ca         1 DAW      -0.019000
     16 C3          -3.6720    -0.1800     0.2660 ca         1 DAW      -0.094500
     17 O3          -1.2880     0.9310    -2.3110 o          1 DAW      -0.574100
     18 N2          -0.9350    -0.5290    -0.6110 ns         1 DAW      -0.498900
     19 C9           1.3410     0.0650     0.0200 ca         1 DAW      -0.102300
     20 C11          2.7630     2.0260     0.3330 ca         1 DAW      -0.109500
     21 C12          2.9410     1.6880     1.6850 ca         1 DAW      -0.096000
     22 C14          1.5190    -0.2650     1.3800 ca         1 DAW      -0.077500
     23 C16         -0.0600    -3.3320    -0.5220 cc         1 DAW       0.195900
     24 N4           1.8830    -4.2400    -0.8500 nd         1 DAW      -0.175800
     25 N5           1.9920    -2.8790    -0.9840 na         1 DAW       0.144800
     26 C17          3.2740    -2.2460    -1.3280 c3         1 DAW      -0.015400
     27 C20          6.4630     1.0620     0.3750 c3         1 DAW      -0.088400
     28 C21          7.3370     1.6700     1.4870 c3         1 DAW       0.085600
     29 C18          4.1240    -1.8960    -0.1040 c          1 DAW       0.587100
     30 O4           4.0930    -2.5290     0.9430 o          1 DAW      -0.559100
     31 N6           4.9530    -0.8050    -0.2650 ns         1 DAW      -0.506900
     32 C19          5.8220    -0.2750     0.7870 c3         1 DAW       0.104000
     33 S2           8.1070     3.2830     1.0020 sh         1 DAW      -0.454800
     34 HN1         -9.0840     0.5760    -0.7560 hn         1 DAW       0.477500
     35 HN1A        -8.8670    -0.4510     0.4280 hn         1 DAW       0.477500
     36 H5          -3.6480     1.9510    -2.4140 ha         1 DAW       0.131500
     37 H6          -5.9780     2.2820    -1.6910 ha         1 DAW       0.141500
     38 H8           0.6780    -0.5210    -1.9270 h1         1 DAW       0.058700
     39 H10          1.8320     1.4930    -1.5400 ha         1 DAW       0.112000
     40 H13          2.4550     0.2780     3.2530 ha         1 DAW       0.114000
     41 H2          -5.3770    -0.5380     1.5420 ha         1 DAW       0.141500
     42 H3          -3.0590    -0.8760     0.8330 ha         1 DAW       0.131500
     43 HN2         -1.3500    -0.9600     0.2020 hn         1 DAW       0.324500
     44 H11          3.2410     2.9150    -0.0720 ha         1 DAW       0.114000
     45 H12          3.5580     2.3130     2.3260 ha         1 DAW       0.112000
     46 H14          1.0410    -1.1490     1.7960 ha         1 DAW       0.112000
     47 H16         -1.1210    -3.3300    -0.3110 h4         1 DAW       0.046100
     48 H17          3.8580    -2.9210    -1.9630 h1         1 DAW       0.086200
     49 H17A         3.0790    -1.3300    -1.8950 h1         1 DAW       0.086200
     50 H20          5.6750     1.7780     0.1120 hc         1 DAW       0.059200
     51 H20A         7.0750     0.9100    -0.5220 hc         1 DAW       0.059200
     52 H21          6.7260     1.8340     2.3840 h1         1 DAW       0.062700
     53 H21A         8.1410     0.9670     1.7460 h1         1 DAW       0.062700
     54 HN6          4.9310    -0.3320    -1.1600 hn         1 DAW       0.314500
     55 H19          6.6070    -1.0110     1.0030 h1         1 DAW       0.058200
     56 H19A         5.2260    -0.1300     1.6980 h1         1 DAW       0.058200
     57 HS2          8.7640     3.4920     2.1710 hs         1 DAW       0.217800
@<TRIPOS>BOND
     1     1    11 1   
     2     1    34 1   
     3     1    35 1   
     4     2    23 1   
     5     2    24 2   
     6     3     4 ar  
     7     3     6 1   
     8     3    16 ar  
     9     4     5 ar  
    10     4    36 1   
    11     5    14 ar  
    12     5    37 1   
    13     6    17 2   
    14     6    18 1   
    15     7    10 1   
    16     7    18 1   
    17     7    19 1   
    18     7    38 1   
    19     8    19 ar  
    20     8    20 ar  
    21     8    39 1   
    22     9    21 ar  
    23     9    22 ar  
    24     9    40 1   
    25    10    23 2   
    26    10    25 1   
    27    11    12 2   
    28    11    13 2   
    29    11    14 1   
    30    14    15 ar  
    31    15    16 ar  
    32    15    41 1   
    33    16    42 1   
    34    18    43 1   
    35    19    22 ar  
    36    20    21 ar  
    37    20    44 1   
    38    21    45 1   
    39    22    46 1   
    40    23    47 1   
    41    24    25 1   
    42    25    26 1   
    43    26    29 1   
    44    26    48 1   
    45    26    49 1   
    46    27    28 1   
    47    27    32 1   
    48    27    50 1   
    49    27    51 1   
    50    28    33 1   
    51    28    52 1   
    52    28    53 1   
    53    29    30 2   
    54    29    31 1   
    55    31    32 1   
    56    31    54 1   
    57    32    55 1   
    58    32    56 1   
    59    33    57 1   
@<TRIPOS>SUBSTRUCTURE
     1 DAW         1 TEMP              0 ****  ****    0 ROOT
