@<TRIPOS>MOLECULE
DAW
   57    59     1     0     0
SMALL
abcg2


@<TRIPOS>ATOM
      1 N1          -8.0830    -0.3080    -0.9540 n8         1 DAW      -1.011100
      2 N3           0.8450    -4.3320    -0.1760 nc         1 DAW      -0.347000
      3 C4          -3.0930     0.6590    -0.3880 ca         1 DAW      -0.100600
      4 C5          -3.8020     1.7150    -0.9500 ca         1 DAW      -0.094500
      5 C6          -5.1790     1.7860    -0.8160 ca         1 DAW      -0.019000
      6 C7          -1.6050     0.6500    -0.5450 c          1 DAW       0.604700
      7 C8           0.4240    -0.6980    -0.5920 c3         1 DAW       0.246300
      8 C10          2.0990     1.0370     0.1430 ca         1 DAW      -0.077500
      9 C13          1.6320     0.4680     2.8150 ca         1 DAW      -0.109500
     10 C15          0.7590    -2.1540    -0.5150 cd         1 DAW      -0.197300
     11 S1          -7.6000     0.8720     0.0900 sy         1 DAW       1.128600
     12 O1          -8.0300     2.2010    -0.3190 o          1 DAW      -0.540000
     13 O2          -7.9570     0.4030     1.4200 o          1 DAW      -0.540000
     14 C1          -5.8380     0.7950    -0.1050 ca         1 DAW      -0.248500
     15 C2          -5.1460    -0.2570     0.4800 ca         1 DAW      -0.019000
     16 C3          -3.7720    -0.3200     0.3350 ca         1 DAW      -0.094500
     17 O3          -0.9810     1.6790    -0.7290 o          1 DAW      -0.574100
     18 N2          -1.0130    -0.5610    -0.4550 ns         1 DAW      -0.498900
     19 C9           1.1670     0.0700     0.4870 ca         1 DAW      -0.102300
     20 C11          2.8030     1.7150     1.1290 ca         1 DAW      -0.109500
     21 C12          2.5710     1.4320     2.4670 ca         1 DAW      -0.096000
     22 C14          0.9360    -0.2130     1.8290 ca         1 DAW      -0.077500
     23 C16          0.0730    -3.2360    -0.0250 cc         1 DAW       0.195900
     24 N4           1.9570    -3.9900    -0.7180 nd         1 DAW      -0.175800
     25 N5           1.9230    -2.6850    -0.9390 na         1 DAW       0.144800
     26 C17          3.0920    -2.0150    -1.4370 c3         1 DAW      -0.015400
     27 C20          6.6820     0.9750    -0.3110 c3         1 DAW      -0.088400
     28 C21          7.5850     1.6480     0.7100 c3         1 DAW       0.085600
     29 C18          3.9940    -1.5780    -0.2830 c          1 DAW       0.587100
     30 O4           3.9000    -2.0790     0.8210 o          1 DAW      -0.559100
     31 N6           4.8950    -0.6490    -0.6160 ns         1 DAW      -0.506900
     32 C19          5.8210    -0.0910     0.3470 c3         1 DAW       0.104000
     33 S2           8.6360     2.8690    -0.1440 sh         1 DAW      -0.454800
     34 HN1         -8.0590    -0.0150    -1.9250 hn         1 DAW       0.477500
     35 HN1A        -9.0000    -0.6720    -0.7150 hn         1 DAW       0.477500
     36 H5          -3.2810     2.4870    -1.4970 ha         1 DAW       0.131500
     37 H6          -5.7210     2.6090    -1.2600 ha         1 DAW       0.141500
     38 H8           0.7380    -0.3110    -1.5700 h1         1 DAW       0.058700
     39 H10          2.2740     1.2720    -0.9000 ha         1 DAW       0.112000
     40 H13          1.4450     0.2450     3.8580 ha         1 DAW       0.114000
     41 H2          -5.6620    -1.0190     1.0480 ha         1 DAW       0.141500
     42 H3          -3.2390    -1.1290     0.8170 ha         1 DAW       0.131500
     43 HN2         -1.5820    -1.3770    -0.6150 hn         1 DAW       0.324500
     44 H11          3.5260     2.4720     0.8510 ha         1 DAW       0.114000
     45 H12          3.1180     1.9620     3.2360 ha         1 DAW       0.112000
     46 H14          0.2100    -0.9670     2.1080 ha         1 DAW       0.112000
     47 H16         -0.9070    -3.2880     0.4220 h4         1 DAW       0.046100
     48 H17          3.6350    -2.7140    -2.0740 h1         1 DAW       0.086200
     49 H17A         2.7950    -1.1750    -2.0650 h1         1 DAW       0.086200
     50 H20          6.0420     1.7260    -0.7850 hc         1 DAW       0.059200
     51 H20A         7.2860     0.5210    -1.1020 hc         1 DAW       0.059200
     52 H21          6.9870     2.1540     1.4690 h1         1 DAW       0.062700
     53 H21A         8.2180     0.9140     1.2070 h1         1 DAW       0.062700
     54 HN6          4.8720    -0.2540    -1.5420 hn         1 DAW       0.314500
     55 H19          6.4540    -0.8810     0.7590 h1         1 DAW       0.058200
     56 H19A         5.2600     0.3420     1.1810 h1         1 DAW       0.058200
     57 HS2          9.3220     3.2900     0.9240 hs         1 DAW       0.217800
@<TRIPOS>BOND
     1     1    11 1   
     2     1    34 1   
     3     1    35 1   
     4     2    23 1   
     5     2    24 2   
     6     3     4 ar  
     7     3     6 1   
     8     3    16 ar  
     9     4     5 ar  
    10     4    36 1   
    11     5    14 ar  
    12     5    37 1   
    13     6    17 2   
    14     6    18 1   
    15     7    10 1   
    16     7    18 1   
    17     7    19 1   
    18     7    38 1   
    19     8    19 ar  
    20     8    20 ar  
    21     8    39 1   
    22     9    21 ar  
    23     9    22 ar  
    24     9    40 1   
    25    10    23 2   
    26    10    25 1   
    27    11    12 2   
    28    11    13 2   
    29    11    14 1   
    30    14    15 ar  
    31    15    16 ar  
    32    15    41 1   
    33    16    42 1   
    34    18    43 1   
    35    19    22 ar  
    36    20    21 ar  
    37    20    44 1   
    38    21    45 1   
    39    22    46 1   
    40    23    47 1   
    41    24    25 1   
    42    25    26 1   
    43    26    29 1   
    44    26    48 1   
    45    26    49 1   
    46    27    28 1   
    47    27    32 1   
    48    27    50 1   
    49    27    51 1   
    50    28    33 1   
    51    28    52 1   
    52    28    53 1   
    53    29    30 2   
    54    29    31 1   
    55    31    32 1   
    56    31    54 1   
    57    32    55 1   
    58    32    56 1   
    59    33    57 1   
@<TRIPOS>SUBSTRUCTURE
     1 DAW         1 TEMP              0 ****  ****    0 ROOT
