@<TRIPOS>MOLECULE
DAX
   45    47     1     0     0
SMALL
abcg2


@<TRIPOS>ATOM
      1 C1          -1.0550    -3.8960     0.4290 ca         1 DAX       0.001000
      2 C2           0.2690    -4.2120     0.5630 ca         1 DAX      -0.135000
      3 C3           1.2330    -3.2010     0.4970 ca         1 DAX       0.018000
      4 C4           0.8910    -1.8850     0.2840 ca         1 DAX      -0.223600
      5 C5          -2.4440     1.4490    -0.6360 ca         1 DAX      -0.090900
      6 C6          -3.7490     1.8420    -0.7830 ca         1 DAX       0.029000
      7 C7          -4.7880     0.9120    -0.6500 ca         1 DAX      -0.108000
      8 C8          -4.5040    -0.3970    -0.3770 ca         1 DAX      -0.036000
      9 C9          -2.8420    -2.2050     0.0410 cc         1 DAX       0.507500
     10 N9          -3.7870    -3.1080     0.1480 nv         1 DAX      -0.525700
     11 N10         -0.8440    -0.2960    -0.1980 na         1 DAX      -0.890000
     12 C11         -1.4610    -2.5700     0.1890 ca         1 DAX      -0.279900
     13 C12         -0.4790    -1.5660     0.0820 ca         1 DAX       0.404000
     14 C13         -3.1740    -0.8320    -0.2260 ca         1 DAX      -0.263900
     15 C14         -2.1260     0.1020    -0.3520 ca         1 DAX       0.381000
     16 CD1          1.9200    -0.8040     0.2490 c          1 DAX       0.632700
     17 OD1          1.7230     0.2480    -0.3570 o          1 DAX      -0.613100
     18 ND1          3.0510    -1.0290     0.9280 ns         1 DAX      -0.489900
     19 BR          -1.0770     2.7290    -0.8080 br         1 DAX      -0.023100
     20 CD2          4.1120    -0.0540     1.0020 c3         1 DAX       0.085000
     21 CD3          5.0750    -0.2270    -0.1680 c3         1 DAX       0.063600
     22 ND2          6.3010     0.6090    -0.0150 nx         1 DAX      -0.653000
     23 CD7          7.3230     0.2350    -1.0260 c3         1 DAX       0.072900
     24 CD8          6.0160     2.0660    -0.0710 c3         1 DAX       0.072900
     25 H1          -1.7760    -4.6970     0.5010 ha         1 DAX       0.134000
     26 H2           0.5720    -5.2350     0.7280 ha         1 DAX       0.159000
     27 H3           2.2720    -3.4860     0.6040 ha         1 DAX       0.129000
     28 H6          -3.9860     2.8750    -1.0000 ha         1 DAX       0.166000
     29 H7          -5.8110     1.2370    -0.7670 ha         1 DAX       0.161000
     30 H8          -5.3320    -1.0850    -0.2810 ha         1 DAX       0.130000
     31 H91         -3.5940    -4.0790     0.3280 hn         1 DAX       0.370000
     32 H92         -4.7630    -2.8860     0.0490 hn         1 DAX       0.370000
     33 H10         -0.0620     0.3460    -0.3560 hn         1 DAX       0.577000
     34 HD1          3.1490    -1.8580     1.4910 hn         1 DAX       0.344500
     35 HD21         4.6370    -0.2100     1.9450 h1         1 DAX       0.083200
     36 HD22         3.6800     0.9450     1.0270 h1         1 DAX       0.083200
     37 HD31         4.6160     0.0460    -1.1170 hx         1 DAX       0.108200
     38 HD32         5.4060    -1.2620    -0.2240 hx         1 DAX       0.108200
     39 HD2          6.7000     0.4050     0.9020 hn         1 DAX       0.502000
     40 HD71         8.2210     0.8170    -0.8440 hx         1 DAX       0.106033
     41 HD72         7.5420    -0.8240    -0.9330 hx         1 DAX       0.106033
     42 HD73         6.9320     0.4540    -2.0150 hx         1 DAX       0.106033
     43 HD81         5.3340     2.3430     0.7260 hx         1 DAX       0.106033
     44 HD82         6.9490     2.6060     0.0520 hx         1 DAX       0.106033
     45 HD83         5.5770     2.2950    -1.0380 hx         1 DAX       0.106033
@<TRIPOS>BOND
     1     1     2 ar  
     2     1    12 ar  
     3     1    25 1   
     4     2     3 ar  
     5     2    26 1   
     6     3     4 ar  
     7     3    27 1   
     8     4    13 ar  
     9     4    16 1   
    10     5     6 ar  
    11     5    15 ar  
    12     5    19 1   
    13     6     7 ar  
    14     6    28 1   
    15     7     8 ar  
    16     7    29 1   
    17     8    14 ar  
    18     8    30 1   
    19     9    10 2   
    20     9    12 1   
    21     9    14 1   
    22    10    31 1   
    23    10    32 1   
    24    11    13 1   
    25    11    15 1   
    26    11    33 1   
    27    12    13 ar  
    28    14    15 ar  
    29    16    17 2   
    30    16    18 1   
    31    18    20 1   
    32    18    34 1   
    33    20    21 1   
    34    20    35 1   
    35    20    36 1   
    36    21    22 1   
    37    21    37 1   
    38    21    38 1   
    39    22    23 1   
    40    22    24 1   
    41    22    39 1   
    42    23    40 1   
    43    23    41 1   
    44    23    42 1   
    45    24    43 1   
    46    24    44 1   
    47    24    45 1   
@<TRIPOS>SUBSTRUCTURE
     1 DAX         1 TEMP              0 ****  ****    0 ROOT
