@<TRIPOS>MOLECULE
DAX
   45    47     1     0     0
SMALL
No Charge or Current Charge


@<TRIPOS>ATOM
      1 C1          -1.1840    -3.8730     0.8020 ca         1 DAX       0.001000
      2 C2           0.1150    -4.1710     1.2270 ca         1 DAX      -0.135000
      3 C3           1.1320    -3.2110     1.1310 ca         1 DAX       0.018000
      4 C4           0.8620    -1.9210     0.6130 ca         1 DAX      -0.223600
      5 C5          -2.3010     1.4400    -0.6570 ca         1 DAX      -0.090900
      6 C6          -3.6180     1.9100    -0.7960 ca         1 DAX       0.029000
      7 C7          -4.6910     1.0080    -0.7300 ca         1 DAX      -0.108000
      8 C8          -4.4520    -0.3620    -0.5300 ca         1 DAX      -0.036000
      9 C9          -2.8080    -2.2380    -0.1830 cc         1 DAX       0.507500
     10 N9          -3.7240    -3.2020    -0.4770 nv         1 DAX      -0.525700
     11 N10         -0.7550    -0.3830    -0.3260 na         1 DAX      -0.890000
     12 C11         -1.4730    -2.5990     0.2680 ca         1 DAX      -0.279900
     13 C12         -0.4580    -1.6310     0.1860 ca         1 DAX       0.404000
     14 C13         -3.1250    -0.8380    -0.3970 ca         1 DAX      -0.263900
     15 C14         -2.0570     0.0670    -0.4520 ca         1 DAX       0.381000
     16 CD1          1.9690    -0.8900     0.5150 c          1 DAX       0.632700
     17 OD1          1.8720     0.1350    -0.1490 o          1 DAX      -0.613100
     18 ND1          3.1350    -1.1620     1.2000 ns         1 DAX      -0.489900
     19 Br          -0.8550     2.7040    -0.7480 br         1 DAX      -0.023100
     20 CD2          4.3220    -0.2960     1.2030 c3         1 DAX       0.085000
     21 CD3          4.9940    -0.2240    -0.1850 c3         1 DAX       0.063600
     22 ND2          6.2640     0.6370    -0.2370 nx         1 DAX      -0.653000
     23 CD7          6.9900     0.4820    -1.5810 c3         1 DAX       0.072900
     24 CD8          5.9940     2.1170     0.0830 c3         1 DAX       0.072900
     25 H1          -1.9530    -4.6360     0.9040 ha         1 DAX       0.134000
     26 H2           0.3390    -5.1560     1.6320 ha         1 DAX       0.159000
     27 H3           2.1280    -3.4990     1.4560 ha         1 DAX       0.129000
     28 H6          -3.8070     2.9700    -0.9510 ha         1 DAX       0.166000
     29 H7          -5.7120     1.3730    -0.8310 ha         1 DAX       0.161000
     30 H8          -5.3050    -1.0360    -0.4670 ha         1 DAX       0.130000
     31 H91         -3.4070    -4.1580    -0.5610 hn         1 DAX       0.370000
     32 H92         -4.5480    -2.9430    -1.0000 hn         1 DAX       0.370000
     33 H10          0.0290     0.2470    -0.5150 hn         1 DAX       0.577000
     34 HD1          3.1510    -2.0000     1.7660 hn         1 DAX       0.344500
     35 HD21         5.0410    -0.6820     1.9370 h1         1 DAX       0.083200
     36 HD22         4.0210     0.7110     1.5200 h1         1 DAX       0.083200
     37 HD31         4.2750     0.1750    -0.9050 hx         1 DAX       0.108200
     38 HD32         5.2500    -1.2410    -0.4970 hx         1 DAX       0.108200
     39 HD2          6.9200     0.2760     0.5000 hn         1 DAX       0.502000
     40 HD71         7.9180     1.0600    -1.5720 hx         1 DAX       0.106033
     41 HD72         7.2250    -0.5710    -1.7580 hx         1 DAX       0.106033
     42 HD73         6.3490     0.8460    -2.3870 hx         1 DAX       0.106033
     43 HD81         5.5580     2.2130     1.0810 hx         1 DAX       0.106033
     44 HD82         6.9300     2.6810     0.0470 hx         1 DAX       0.106033
     45 HD83         5.3000     2.5290    -0.6530 hx         1 DAX       0.106033
@<TRIPOS>BOND
     1     1     2 ar  
     2     1    12 ar  
     3     1    25 1   
     4     2     3 ar  
     5     2    26 1   
     6     3     4 ar  
     7     3    27 1   
     8     4    13 ar  
     9     4    16 1   
    10     5     6 ar  
    11     5    15 ar  
    12     5    19 1   
    13     6     7 ar  
    14     6    28 1   
    15     7     8 ar  
    16     7    29 1   
    17     8    14 ar  
    18     8    30 1   
    19     9    10 2   
    20     9    12 1   
    21     9    14 1   
    22    10    31 1   
    23    10    32 1   
    24    11    13 1   
    25    11    15 1   
    26    11    33 1   
    27    12    13 ar  
    28    14    15 ar  
    29    16    17 2   
    30    16    18 1   
    31    18    20 1   
    32    18    34 1   
    33    20    21 1   
    34    20    35 1   
    35    20    36 1   
    36    21    22 1   
    37    21    37 1   
    38    21    38 1   
    39    22    23 1   
    40    22    24 1   
    41    22    39 1   
    42    23    40 1   
    43    23    41 1   
    44    23    42 1   
    45    24    43 1   
    46    24    44 1   
    47    24    45 1   
@<TRIPOS>SUBSTRUCTURE
     1 DAX         1 TEMP              0 ****  ****    0 ROOT
