@<TRIPOS>MOLECULE
DAY
   72    77     1     0     0
SMALL
bcc


@<TRIPOS>ATOM
      1 C1          -1.4430     1.9010    -0.2570 c6         1 DAY       0.015900
      2 O1           1.5310     2.2980     1.2510 oh         1 DAY      -0.594800
      3 C2          -2.9300     1.9250    -0.2260 cc         1 DAY      -0.258600
      4 C3          -3.6310     0.7430    -0.2310 cd         1 DAY      -0.053100
      5 C4          -2.9950    -0.5420    -0.1260 cf         1 DAY      -0.108200
      6 C5          -1.6820    -0.5960     0.1830 ce         1 DAY      -0.040200
      7 C6          -1.0190    -1.8840     0.3910 ce         1 DAY      -0.087200
      8 C7           0.2820    -1.9410     0.7110 c2         1 DAY      -0.145200
      9 C8           1.2020    -0.7670     0.7790 c6         1 DAY      -0.010500
     10 C9           0.5760     0.4280     0.0520 c6         1 DAY      -0.040700
     11 C10         -0.8850     0.6750     0.4980 c6         1 DAY       0.010200
     12 C11          1.4900     1.6570    -0.0080 c6         1 DAY       0.157100
     13 C12          2.8900     1.2940    -0.5350 c6         1 DAY      -0.100400
     14 C13          3.5200     0.0970     0.1750 c5         1 DAY      -0.018000
     15 C14          2.5360    -1.0820     0.1070 c5         1 DAY      -0.063700
     16 C15          3.3570    -2.2820     0.5680 c5         1 DAY      -0.062400
     17 C16          4.8090    -1.9620     0.1320 c5         1 DAY      -0.086700
     18 C17          4.7520    -0.5590    -0.5320 c5         1 DAY       0.061800
     19 C18          3.8970     0.4530     1.6200 c3         1 DAY      -0.097100
     20 C19         -1.0440     0.9010     2.0110 c3         1 DAY      -0.079100
     21 C20          6.0400     0.2410    -0.3400 c          1 DAY       0.547100
     22 C21          6.3330     1.3050    -1.3760 c3         1 DAY       0.037400
     23 N1          -4.9490     1.0700    -0.2630 na         1 DAY       0.177300
     24 O2           4.4630    -0.6240    -1.9110 oh         1 DAY      -0.596800
     25 O3           6.7920     0.0570     0.5860 o          1 DAY      -0.481100
     26 O4           7.3970     2.0930    -0.9290 oh         1 DAY      -0.571800
     27 C22         -3.9160     2.9200    -0.2440 cc         1 DAY       0.321200
     28 N2          -5.1300     2.3960    -0.2620 nd         1 DAY      -0.510800
     29 C23         -7.1360     0.4620     0.5770 ca         1 DAY      -0.123500
     30 C24         -6.0640     0.2070    -0.2710 ca         1 DAY       0.018800
     31 C25         -8.2350    -0.3830     0.5630 ca         1 DAY      -0.120500
     32 C26         -8.2640    -1.4850    -0.2820 ca         1 DAY      -0.128000
     33 C27         -6.0930    -0.8830    -1.1330 ca         1 DAY      -0.123500
     34 C29         -7.1910    -1.7330    -1.1270 ca         1 DAY      -0.120500
     35 C28         -1.8290    -3.1440     0.2780 c3         1 DAY      -0.051900
     36 C30          5.4400    -3.0380    -0.7410 c3         1 DAY      -0.096100
     37 H1          -1.1100     1.8670    -1.3020 hc         1 DAY       0.051200
     38 HO1          2.1520     3.0310     1.1910 ho         1 DAY       0.401000
     39 H4          -3.5760    -1.4450    -0.2540 ha         1 DAY       0.139000
     40 H1A         -1.0230     2.8120     0.1720 hc         1 DAY       0.051200
     41 H7           0.7150    -2.9140     0.9280 ha         1 DAY       0.123000
     42 H8           1.3770    -0.5320     1.8370 hc         1 DAY       0.078700
     43 H9           0.4970     0.1150    -1.0000 hc         1 DAY       0.052700
     44 H11          1.0600     2.3440    -0.7490 h1         1 DAY       0.028700
     45 H12          2.7860     1.0770    -1.6010 hc         1 DAY       0.052200
     46 H12A         3.5260     2.1860    -0.4670 hc         1 DAY       0.052200
     47 H14          2.3020    -1.2400    -0.9530 hc         1 DAY       0.062700
     48 H15          3.2990    -2.4130     1.6520 hc         1 DAY       0.047700
     49 H15A         3.0050    -3.2130     0.1200 hc         1 DAY       0.047700
     50 H16          5.4310    -1.8770     1.0230 hc         1 DAY       0.078700
     51 H18          3.0200     0.6900     2.2130 hc         1 DAY       0.047700
     52 H18A         4.4300    -0.3480     2.1280 hc         1 DAY       0.047700
     53 H18B         4.5380     1.3360     1.6460 hc         1 DAY       0.047700
     54 H19         -0.6730     0.0550     2.5900 hc         1 DAY       0.043367
     55 H19A        -0.5110     1.7910     2.3350 hc         1 DAY       0.043367
     56 H19B        -2.0990     1.0290     2.2610 hc         1 DAY       0.043367
     57 H21          6.5560     0.8010    -2.3270 h1         1 DAY       0.042700
     58 H21A         5.4180     1.8860    -1.5540 h1         1 DAY       0.042700
     59 HO2          5.0420    -1.2690    -2.3320 ho         1 DAY       0.412000
     60 HO4          7.5880     2.7390    -1.6140 ho         1 DAY       0.405000
     61 H22         -3.7910     3.9930    -0.2510 h4         1 DAY       0.037100
     62 H25         -9.0690    -0.1830     1.2230 ha         1 DAY       0.135500
     63 H26         -9.1220    -2.1450    -0.2870 ha         1 DAY       0.134000
     64 H27         -5.2800    -1.0580    -1.8250 ha         1 DAY       0.149000
     65 H29         -7.2100    -2.5810    -1.7980 ha         1 DAY       0.135500
     66 H28         -2.2410    -3.2670    -0.7270 hc         1 DAY       0.041367
     67 H28A        -1.2160    -4.0190     0.4880 hc         1 DAY       0.041367
     68 H28B        -2.6740    -3.1510     0.9700 hc         1 DAY       0.041367
     69 H30          4.8430    -3.2700    -1.6260 hc         1 DAY       0.038700
     70 H30A         6.4470    -2.7650    -1.0660 hc         1 DAY       0.038700
     71 H30B         5.5290    -3.9660    -0.1760 hc         1 DAY       0.038700
     72 H23         -7.1040     1.3130     1.2440 ha         1 DAY       0.149000
@<TRIPOS>BOND
     1     1     3 1   
     2     1    11 1   
     3     1    37 1   
     4     1    40 1   
     5     2    12 1   
     6     2    38 1   
     7     3     4 2   
     8     3    27 1   
     9     4     5 1   
    10     4    23 1   
    11     5     6 2   
    12     5    39 1   
    13     6     7 1   
    14     6    11 1   
    15     7     8 2   
    16     7    35 1   
    17     8     9 1   
    18     8    41 1   
    19     9    10 1   
    20     9    15 1   
    21     9    42 1   
    22    10    11 1   
    23    10    12 1   
    24    10    43 1   
    25    11    20 1   
    26    12    13 1   
    27    12    44 1   
    28    13    14 1   
    29    13    45 1   
    30    13    46 1   
    31    14    15 1   
    32    14    18 1   
    33    14    19 1   
    34    15    16 1   
    35    15    47 1   
    36    16    17 1   
    37    16    48 1   
    38    16    49 1   
    39    17    18 1   
    40    17    36 1   
    41    17    50 1   
    42    18    21 1   
    43    18    24 1   
    44    19    51 1   
    45    19    52 1   
    46    19    53 1   
    47    20    54 1   
    48    20    55 1   
    49    20    56 1   
    50    21    22 1   
    51    21    25 2   
    52    22    26 1   
    53    22    57 1   
    54    22    58 1   
    55    23    28 1   
    56    23    30 1   
    57    24    59 1   
    58    26    60 1   
    59    27    28 2   
    60    27    61 1   
    61    29    30 ar  
    62    29    31 ar  
    63    29    72 1   
    64    30    33 ar  
    65    31    32 ar  
    66    31    62 1   
    67    32    34 ar  
    68    32    63 1   
    69    33    34 ar  
    70    33    64 1   
    71    34    65 1   
    72    35    66 1   
    73    35    67 1   
    74    35    68 1   
    75    36    69 1   
    76    36    70 1   
    77    36    71 1   
@<TRIPOS>SUBSTRUCTURE
     1 DAY         1 TEMP              0 ****  ****    0 ROOT
