@<TRIPOS>MOLECULE
DAY
   72    77     1     0     0
SMALL
No Charge or Current Charge


@<TRIPOS>ATOM
      1 C1          -1.4830     1.9270    -0.4920 c6         1 DAY       0.015900
      2 O1           1.5790     2.3390     1.2440 oh         1 DAY      -0.657000
      3 C2          -2.9870     1.9160    -0.5300 cc         1 DAY      -0.193300
      4 C3          -3.7050     0.7830    -0.4970 cd         1 DAY      -0.103800
      5 C4          -3.0690    -0.5100    -0.3470 cf         1 DAY      -0.158200
      6 C5          -1.7570    -0.6170     0.0320 ce         1 DAY      -0.040200
      7 C6          -1.0770    -1.9090     0.3130 ce         1 DAY      -0.087200
      8 C7           0.2380    -1.9900     0.6200 c2         1 DAY      -0.195200
      9 C8           1.1770    -0.7930     0.7030 c6         1 DAY      -0.010500
     10 C9           0.5730     0.4360    -0.0520 c6         1 DAY      -0.040700
     11 C10         -0.9380     0.6900     0.3380 c6         1 DAY       0.010200
     12 C11          1.5350     1.6860    -0.0280 c6         1 DAY       0.180300
     13 C12          2.9770     1.3210    -0.5130 c6         1 DAY      -0.100400
     14 C13          3.6000     0.0640     0.1950 c5         1 DAY      -0.018000
     15 C14          2.5750    -1.1140     0.0950 c5         1 DAY      -0.063700
     16 C15          3.3820    -2.3150     0.6660 c5         1 DAY      -0.062400
     17 C16          4.8530    -2.0600     0.1690 c5         1 DAY      -0.086700
     18 C17          4.8170    -0.6410    -0.5560 c5         1 DAY       0.085000
     19 C18          3.9820     0.4710     1.6680 c3         1 DAY      -0.097100
     20 C19         -1.1650     0.9740     1.8630 c3         1 DAY      -0.079100
     21 C20          6.1720     0.1570    -0.3220 c          1 DAY       0.547100
     22 C21          6.3900     1.4160    -1.2140 c3         1 DAY       0.060600
     23 N1          -5.0180     1.2520    -0.4290 na         1 DAY       0.228000
     24 O2           4.5930    -0.7960    -1.9760 oh         1 DAY      -0.659000
     25 O3           7.0560    -0.1940     0.4590 o          1 DAY      -0.481100
     26 O4           6.9280     2.5560    -0.4980 oh         1 DAY      -0.634000
     27 C22         -3.8840     3.0030    -0.5200 cc         1 DAY       0.255900
     28 N2          -5.1540     2.6340    -0.4570 nd         1 DAY      -0.510800
     29 C23         -6.7140     0.1690     0.9310 ca         1 DAY      -0.105500
     30 C24         -6.0310     0.3040    -0.2940 ca         1 DAY       0.018800
     31 C25         -7.7310    -0.7910     1.0720 ca         1 DAY      -0.102500
     32 C26         -8.0700    -1.6200    -0.0110 ca         1 DAY      -0.110000
     33 C27         -6.3770    -0.5280    -1.3780 ca         1 DAY      -0.105500
     34 C29         -7.3940    -1.4890    -1.2360 ca         1 DAY      -0.102500
     35 C28         -1.9240    -3.1740     0.2800 c3         1 DAY      -0.051900
     36 C30          5.4580    -3.2230    -0.6570 c3         1 DAY      -0.096100
     37 H1          -1.1060     1.8780    -1.5230 hc         1 DAY       0.051200
     38 HO1          2.1380     3.1360     1.1330 ho         1 DAY       0.440000
     39 H4          -3.6940    -1.3900    -0.4940 ha         1 DAY       0.189000
     40 H1A         -1.1090     2.8710    -0.0730 hc         1 DAY       0.051200
     41 H7           0.6840    -2.9590     0.8430 ha         1 DAY       0.173000
     42 H8           1.2990    -0.5450     1.7640 hc         1 DAY       0.078700
     43 H9           0.5350     0.1410    -1.1110 hc         1 DAY       0.052700
     44 H11          1.1490     2.4100    -0.7600 h1         1 DAY       0.028700
     45 H12          2.9180     1.1480    -1.5960 hc         1 DAY       0.052200
     46 H12A         3.6360     2.1900    -0.3900 hc         1 DAY       0.052200
     47 H14          2.3350    -1.3340    -0.9530 hc         1 DAY       0.062700
     48 H15          3.3320    -2.3490     1.7600 hc         1 DAY       0.047700
     49 H15A         2.9860    -3.2730     0.3080 hc         1 DAY       0.047700
     50 H16          5.4880    -2.0190     1.0620 hc         1 DAY       0.078700
     51 H18          3.1100     0.6520     2.3010 hc         1 DAY       0.047700
     52 H18A         4.5690    -0.2910     2.1900 hc         1 DAY       0.047700
     53 H18B         4.5840     1.3870     1.6820 hc         1 DAY       0.047700
     54 H19         -0.7620     0.1780     2.4980 hc         1 DAY       0.043367
     55 H19A        -0.7210     1.9200     2.1870 hc         1 DAY       0.043367
     56 H19B        -2.2350     1.0430     2.0920 hc         1 DAY       0.043367
     57 H21          7.0650     1.1180    -2.0270 h1         1 DAY       0.042700
     58 H21A         5.4320     1.6770    -1.6790 h1         1 DAY       0.042700
     59 HO2          3.9430    -1.5230    -2.0830 ho         1 DAY       0.451000
     60 HO4          7.0720     3.2770    -1.1520 ho         1 DAY       0.444000
     61 H22         -3.6420     4.0570    -0.5280 h4         1 DAY       0.037100
     62 H25         -8.2550    -0.8930     2.0200 ha         1 DAY       0.117500
     63 H26         -8.8570    -2.3640     0.0980 ha         1 DAY       0.116000
     64 H27         -5.8550    -0.4290    -2.3280 ha         1 DAY       0.131000
     65 H29         -7.6570    -2.1300    -2.0750 ha         1 DAY       0.117500
     66 H28         -2.2970    -3.3760    -0.7310 hc         1 DAY       0.041367
     67 H28A        -1.3580    -4.0580     0.5970 hc         1 DAY       0.041367
     68 H28B        -2.7880    -3.0930     0.9510 hc         1 DAY       0.041367
     69 H30          4.8490    -3.4580    -1.5380 hc         1 DAY       0.038700
     70 H30A         6.4700    -2.9780    -1.0010 hc         1 DAY       0.038700
     71 H30B         5.5250    -4.1360    -0.0530 hc         1 DAY       0.038700
     72 H23         -6.4520     0.8080     1.7710 ha         1 DAY       0.131000
@<TRIPOS>BOND
     1     1     3 1   
     2     1    11 1   
     3     1    37 1   
     4     1    40 1   
     5     2    12 1   
     6     2    38 1   
     7     3     4 2   
     8     3    27 1   
     9     4     5 1   
    10     4    23 1   
    11     5     6 2   
    12     5    39 1   
    13     6     7 1   
    14     6    11 1   
    15     7     8 2   
    16     7    35 1   
    17     8     9 1   
    18     8    41 1   
    19     9    10 1   
    20     9    15 1   
    21     9    42 1   
    22    10    11 1   
    23    10    12 1   
    24    10    43 1   
    25    11    20 1   
    26    12    13 1   
    27    12    44 1   
    28    13    14 1   
    29    13    45 1   
    30    13    46 1   
    31    14    15 1   
    32    14    18 1   
    33    14    19 1   
    34    15    16 1   
    35    15    47 1   
    36    16    17 1   
    37    16    48 1   
    38    16    49 1   
    39    17    18 1   
    40    17    36 1   
    41    17    50 1   
    42    18    21 1   
    43    18    24 1   
    44    19    51 1   
    45    19    52 1   
    46    19    53 1   
    47    20    54 1   
    48    20    55 1   
    49    20    56 1   
    50    21    22 1   
    51    21    25 2   
    52    22    26 1   
    53    22    57 1   
    54    22    58 1   
    55    23    28 1   
    56    23    30 1   
    57    24    59 1   
    58    26    60 1   
    59    27    28 2   
    60    27    61 1   
    61    29    30 ar  
    62    29    31 ar  
    63    29    72 1   
    64    30    33 ar  
    65    31    32 ar  
    66    31    62 1   
    67    32    34 ar  
    68    32    63 1   
    69    33    34 ar  
    70    33    64 1   
    71    34    65 1   
    72    35    66 1   
    73    35    67 1   
    74    35    68 1   
    75    36    69 1   
    76    36    70 1   
    77    36    71 1   
@<TRIPOS>SUBSTRUCTURE
     1 DAY         1 TEMP              0 ****  ****    0 ROOT
