@<TRIPOS>MOLECULE
DB1
   18    18     1     0     0
SMALL
No Charge or Current Charge


@<TRIPOS>ATOM
      1 O1           1.8920     0.2870    -0.3870 oh         1 DB1      -0.582100
      2 O4           0.9220     0.2190    -2.9620 oh         1 DB1      -0.534100
      3 O7           1.3910     0.2180     2.1670 o          1 DB1      -0.655100
      4 N1          -0.6710     0.0200     2.9520 nt         1 DB1      -0.576000
      5 C1           0.5440     0.1640    -0.5900 ca         1 DB1       0.136100
      6 C4           0.0510     0.1290    -1.9130 ca         1 DB1       0.095100
      7 C7          -1.3250     0.0040    -2.1500 ca         1 DB1      -0.094000
      8 C10         -2.2110    -0.0880    -1.0660 ca         1 DB1      -0.127000
      9 C13         -1.7260    -0.0550     0.2540 ca         1 DB1      -0.081000
     10 C16         -0.3380     0.0720     0.5140 ca         1 DB1      -0.236600
     11 C19          0.1980     0.1100     1.9280 c          1 DB1       0.632700
     12 HO1          2.0130     0.2900     0.6030 ho         1 DB1       0.536000
     13 HO4          1.8200     0.2990    -2.5660 ho         1 DB1       0.487000
     14 HN11        -0.3190     0.0450     3.8960 hn         1 DB1       0.322500
     15 HN12        -1.6580    -0.0700     2.7730 hn         1 DB1       0.322500
     16 H7          -1.7020    -0.0220    -3.1700 ha         1 DB1       0.132000
     17 H10         -3.2800    -0.1860    -1.2480 ha         1 DB1       0.120000
     18 H13         -2.4470    -0.1290     1.0640 ha         1 DB1       0.103000
@<TRIPOS>BOND
     1     1     5 1   
     2     1    12 1   
     3     2     6 1   
     4     2    13 1   
     5     3    11 2   
     6     4    11 1   
     7     4    14 1   
     8     4    15 1   
     9     5     6 ar  
    10     5    10 ar  
    11     6     7 ar  
    12     7     8 ar  
    13     7    16 1   
    14     8     9 ar  
    15     8    17 1   
    16     9    10 ar  
    17     9    18 1   
    18    10    11 1   
@<TRIPOS>SUBSTRUCTURE
     1 DB1         1 TEMP              0 ****  ****    0 ROOT
