@<TRIPOS>MOLECULE
DB1
   18    18     1     0     0
SMALL
abcg2


@<TRIPOS>ATOM
      1 O1           1.8470     0.2860    -0.3890 oh         1 DB1      -0.582100
      2 O4           0.9160     0.2170    -2.9070 oh         1 DB1      -0.534100
      3 O7           1.4010     0.2310     2.0700 o          1 DB1      -0.655100
      4 N1          -0.6560     0.0140     2.9260 nt         1 DB1      -0.576000
      5 C1           0.5260     0.1630    -0.5480 ca         1 DB1       0.136100
      6 C4           0.0560     0.1290    -1.8730 ca         1 DB1       0.095100
      7 C7          -1.2960     0.0060    -2.1180 ca         1 DB1      -0.094000
      8 C10         -2.1980    -0.0840    -1.0590 ca         1 DB1      -0.127000
      9 C13         -1.7470    -0.0530     0.2420 ca         1 DB1      -0.081000
     10 C16         -0.3790     0.0700     0.5180 ca         1 DB1      -0.236600
     11 C19          0.1770     0.1100     1.8930 c          1 DB1       0.632700
     12 HO1          2.0020     0.2980     0.5960 ho         1 DB1       0.536000
     13 HO4          1.8220     0.2850    -2.5810 ho         1 DB1       0.487000
     14 HN11        -0.2880     0.0400     3.8640 hn         1 DB1       0.322500
     15 HN12        -1.6510    -0.0810     2.8330 hn         1 DB1       0.322500
     16 H7          -1.6480    -0.0200    -3.1430 ha         1 DB1       0.132000
     17 H10         -3.2560    -0.1790    -1.2630 ha         1 DB1       0.120000
     18 H13         -2.4740    -0.1240     1.0390 ha         1 DB1       0.103000
@<TRIPOS>BOND
     1     1     5 1   
     2     1    12 1   
     3     2     6 1   
     4     2    13 1   
     5     3    11 2   
     6     4    11 1   
     7     4    14 1   
     8     4    15 1   
     9     5     6 ar  
    10     5    10 ar  
    11     6     7 ar  
    12     7     8 ar  
    13     7    16 1   
    14     8     9 ar  
    15     8    17 1   
    16     9    10 ar  
    17     9    18 1   
    18    10    11 1   
@<TRIPOS>SUBSTRUCTURE
     1 DB1         1 TEMP              0 ****  ****    0 ROOT
