@<TRIPOS>MOLECULE
DB3
  137   137     1     0     0
SMALL
bcc


@<TRIPOS>ATOM
      1 C1          -2.8410     5.6090     1.7800 c3         1 DB3       0.123400
      2 C2          -2.8330     4.0860     1.7550 c3         1 DB3       0.088700
      3 N2          -1.6840     3.6230     1.0120 ns         1 DB3      -0.568900
      4 C3          -4.1290     3.4740     1.1810 c3         1 DB3       0.104100
      5 O3          -5.2610     4.2060     1.5880 oh         1 DB3      -0.575800
      6 C4          -4.3130     1.9870     1.5520 c3         1 DB3       0.112100
      7 O4          -3.1630     1.2130     1.2980 oh         1 DB3      -0.576800
      8 C5          -5.5530     1.3920     0.8870 c3         1 DB3      -0.107400
      9 C6          -5.7750    -0.0780     1.2240 c3         1 DB3      -0.072400
     10 C7          -7.0770    -0.6250     0.6520 c3         1 DB3      -0.075400
     11 C8          -7.2390    -2.1240     0.8750 c3         1 DB3      -0.074400
     12 C9          -8.5550    -2.6800     0.3450 c3         1 DB3      -0.074400
     13 C10         -8.6690    -4.1920     0.4930 c3         1 DB3      -0.074400
     14 C11         -9.9900    -4.7520    -0.0180 c3         1 DB3      -0.074400
     15 C12        -10.0820    -6.2690     0.0910 c3         1 DB3      -0.074400
     16 C13        -11.4060    -6.8320    -0.4120 c3         1 DB3      -0.074400
     17 C14        -11.4880    -8.3500    -0.3200 c3         1 DB3      -0.074400
     18 C15        -12.8120    -8.9140    -0.8190 c3         1 DB3      -0.074400
     19 C16        -12.8890   -10.4330    -0.7350 c3         1 DB3      -0.075400
     20 C17        -14.2150   -11.0000    -1.2280 c3         1 DB3      -0.074400
     21 C18        -14.2770   -12.5190    -1.1420 c3         1 DB3      -0.088100
     22 C1A         -2.5130     7.3710     0.2380 c6         1 DB3       0.311900
     23 O1A         -2.9910     6.0860     0.4580 os         1 DB3      -0.427600
     24 C2A         -3.0050     7.8490    -1.1320 c6         1 DB3       0.093100
     25 O2A         -4.3980     7.7320    -1.2780 oh         1 DB3      -0.587800
     26 C3A         -2.3430     7.0410    -2.2410 c6         1 DB3       0.117100
     27 O3A         -2.6660     7.5410    -3.5170 oh         1 DB3      -0.611800
     28 C4A         -0.8240     7.0930    -2.0930 c6         1 DB3       0.125100
     29 O4A         -0.3200     8.3880    -2.3180 oh         1 DB3      -0.590800
     30 O5A          1.2840     6.0580     0.8080 oh         1 DB3      -0.591800
     31 C5M         -0.4540     6.6500    -0.6860 c6         1 DB3       0.149100
     32 C6A          1.0330     6.7100    -0.4150 c3         1 DB3       0.147400
     33 O6A         -1.1150     7.4380     0.2920 os         1 DB3      -0.402600
     34 CAA         -0.5630     3.1380     1.5730 c          1 DB3       0.684100
     35 OAA         -0.4020     3.0720     2.7840 o          1 DB3      -0.603100
     36 CAB          0.4750     2.6460     0.5860 c3         1 DB3      -0.149400
     37 CAC          1.8610     2.4860     1.1880 c3         1 DB3      -0.064400
     38 CAD          2.8680     1.9250     0.1920 c3         1 DB3      -0.076400
     39 CAE          4.2510     1.7390     0.8040 c3         1 DB3      -0.075400
     40 CAF          5.2590     1.0970    -0.1410 c3         1 DB3      -0.073400
     41 CAG          6.6210     0.8860     0.5090 c3         1 DB3      -0.075400
     42 CAH          7.6240     0.1650    -0.3830 c3         1 DB3      -0.074400
     43 CAI          8.9570    -0.0800     0.3130 c3         1 DB3      -0.073400
     44 CAJ          9.9640    -0.8350    -0.5560 c3         1 DB3      -0.043200
     45 CAK         11.2680    -1.0320     0.1520 c2         1 DB3      -0.167200
     46 CAL         11.8170    -2.1790     0.5480 c2         1 DB3      -0.161200
     47 CAM         11.2840    -3.5670     0.3360 c3         1 DB3      -0.009000
     48 CAN         12.2360    -4.3940    -0.4790 c2         1 DB3      -0.166200
     49 CAO         12.8250    -5.5100    -0.0590 c2         1 DB3      -0.169200
     50 CAP         13.7970    -6.3270    -0.8500 c3         1 DB3      -0.040200
     51 CAQ         15.1320    -6.5040    -0.1260 c3         1 DB3      -0.072400
     52 CAR         16.1210    -7.3600    -0.9030 c3         1 DB3      -0.076400
     53 CAS         17.4360    -7.5790    -0.1650 c3         1 DB3      -0.075400
     54 CAT         18.4230    -8.4260    -0.9560 c3         1 DB3      -0.088100
     55 H1          -3.6430     5.9920     2.4210 h1         1 DB3       0.050700
     56 H1A         -1.8890     5.9320     2.2130 h1         1 DB3       0.050700
     57 H2          -2.7110     3.7570     2.7900 h1         1 DB3       0.090700
     58 HN2         -1.7360     3.6610     0.0070 hn         1 DB3       0.307500
     59 H3          -4.0990     3.5650     0.0880 h1         1 DB3       0.077700
     60 HO3         -5.3940     4.0670     2.5330 ho         1 DB3       0.399000
     61 H4          -4.4470     1.9400     2.6420 h1         1 DB3       0.069700
     62 HO4         -3.0140     1.1850     0.3470 ho         1 DB3       0.395000
     63 H5          -6.4320     1.9680     1.1890 hc         1 DB3       0.049200
     64 H5A         -5.4710     1.5100    -0.2010 hc         1 DB3       0.049200
     65 H6          -4.9400    -0.6740     0.8460 hc         1 DB3       0.044200
     66 H6A         -5.7770    -0.2090     2.3120 hc         1 DB3       0.044200
     67 H7          -7.9250    -0.0940     1.0990 hc         1 DB3       0.036700
     68 H7A         -7.1210    -0.4150    -0.4220 hc         1 DB3       0.036700
     69 H8          -6.4050    -2.6480     0.3940 hc         1 DB3       0.038200
     70 H8A         -7.1570    -2.3460     1.9450 hc         1 DB3       0.038200
     71 H9          -9.3900    -2.1970     0.8650 hc         1 DB3       0.037200
     72 H9A         -8.6630    -2.4120    -0.7120 hc         1 DB3       0.037200
     73 H10         -7.8410    -4.6690    -0.0450 hc         1 DB3       0.037200
     74 H10A        -8.5410    -4.4660     1.5460 hc         1 DB3       0.037200
     75 H11        -10.8180    -4.2960     0.5370 hc         1 DB3       0.037200
     76 H11A       -10.1300    -4.4560    -1.0640 hc         1 DB3       0.037200
     77 H12         -9.2580    -6.7220    -0.4710 hc         1 DB3       0.037200
     78 H12A        -9.9350    -6.5680     1.1350 hc         1 DB3       0.037200
     79 H13        -12.2290    -6.3870     0.1580 hc         1 DB3       0.037200
     80 H13A       -11.5580    -6.5230    -1.4530 hc         1 DB3       0.037200
     81 H14        -10.6660    -8.7930    -0.8930 hc         1 DB3       0.036700
     82 H14A       -11.3310    -8.6590     0.7200 hc         1 DB3       0.036700
     83 H15        -13.6340    -8.4760    -0.2420 hc         1 DB3       0.036700
     84 H15A       -12.9720    -8.6000    -1.8570 hc         1 DB3       0.036700
     85 H16        -12.0690   -10.8710    -1.3150 hc         1 DB3       0.036700
     86 H16A       -12.7250   -10.7490     0.3020 hc         1 DB3       0.036700
     87 H17        -15.0330   -10.5640    -0.6460 hc         1 DB3       0.036700
     88 H17A       -14.3800   -10.6860    -2.2630 hc         1 DB3       0.036700
     89 H18        -14.1400   -12.8620    -0.1140 hc         1 DB3       0.031367
     90 H18A       -15.2350   -12.9040    -1.4940 hc         1 DB3       0.031367
     91 H18B       -13.4930   -12.9790    -1.7470 hc         1 DB3       0.031367
     92 H1AA        -2.8620     8.0580     1.0220 h2         1 DB3       0.069700
     93 H2A         -2.6880     8.8950    -1.2350 h1         1 DB3       0.063700
     94 HO2A        -4.8210     8.4710    -0.8320 ho         1 DB3       0.412000
     95 H3A         -2.6530     5.9890    -2.1470 h1         1 DB3       0.060700
     96 HO3A        -3.6220     7.6470    -3.5690 ho         1 DB3       0.430000
     97 H4A         -0.3840     6.3710    -2.7970 h1         1 DB3       0.047700
     98 HO4A        -0.6770     8.7030    -3.1550 ho         1 DB3       0.422000
     99 HO5A         2.2320     6.0670     0.9610 ho         1 DB3       0.406000
    100 H5M         -0.7590     5.6010    -0.5950 h1         1 DB3       0.051700
    101 H6AA         1.3730     7.7530    -0.3960 h1         1 DB3       0.036700
    102 H6AB         1.5470     6.2170    -1.2500 h1         1 DB3       0.036700
    103 HAB          0.1260     1.6840     0.1930 hc         1 DB3       0.050700
    104 HABA         0.5150     3.3250    -0.2700 hc         1 DB3       0.050700
    105 HAC          2.2100     3.4550     1.5530 hc         1 DB3       0.056700
    106 HACA         1.8110     1.8260     2.0570 hc         1 DB3       0.056700
    107 HAD          2.5080     0.9620    -0.1860 hc         1 DB3       0.033200
    108 HADA         2.9370     2.5870    -0.6780 hc         1 DB3       0.033200
    109 HAE          4.6330     2.7080     1.1430 hc         1 DB3       0.039700
    110 HAEA         4.1640     1.1190     1.7030 hc         1 DB3       0.039700
    111 HAF          4.8690     0.1320    -0.4830 hc         1 DB3       0.036700
    112 HAFA         5.3690     1.7150    -1.0380 hc         1 DB3       0.036700
    113 HAG          7.0350     1.8530     0.8140 hc         1 DB3       0.038200
    114 HAGA         6.4900     0.3110     1.4330 hc         1 DB3       0.038200
    115 HAH          7.2010    -0.7930    -0.7030 hc         1 DB3       0.037200
    116 HAHA         7.7890     0.7440    -1.2990 hc         1 DB3       0.037200
    117 HAI          9.3900     0.8770     0.6230 hc         1 DB3       0.039700
    118 HAIA         8.7840    -0.6450     1.2340 hc         1 DB3       0.039700
    119 HAJ          9.5320    -1.7890    -0.8670 hc         1 DB3       0.043700
    120 HAJA        10.1360    -0.2630    -1.4740 hc         1 DB3       0.043700
    121 HAK         11.8020    -0.1150     0.3900 ha         1 DB3       0.115000
    122 HAL         12.7670    -2.1320     1.0730 ha         1 DB3       0.118000
    123 HAM         11.1250    -4.0500     1.3060 hc         1 DB3       0.050200
    124 HAMA        10.3090    -3.5320    -0.1570 hc         1 DB3       0.050200
    125 HAN         12.4530    -4.0210    -1.4780 ha         1 DB3       0.118000
    126 HAO         12.6060    -5.8720     0.9440 ha         1 DB3       0.114000
    127 HAP         13.3700    -7.3190    -1.0380 hc         1 DB3       0.043700
    128 HAPA        13.9620    -5.8710    -1.8300 hc         1 DB3       0.043700
    129 HAQ         15.5720    -5.5210     0.0700 hc         1 DB3       0.039200
    130 HAQA        14.9500    -6.9560     0.8550 hc         1 DB3       0.039200
    131 HAR         15.6650    -8.3320    -1.1260 hc         1 DB3       0.037200
    132 HARA        16.3240    -6.8930    -1.8730 hc         1 DB3       0.037200
    133 HAS         17.8880    -6.6090     0.0670 hc         1 DB3       0.036700
    134 HASA        17.2330    -8.0550     0.7990 hc         1 DB3       0.036700
    135 HAT         19.3530    -8.5790    -0.4060 hc         1 DB3       0.031367
    136 HATA        18.0050    -9.4090    -1.1810 hc         1 DB3       0.031367
    137 HATB        18.6750    -7.9510    -1.9060 hc         1 DB3       0.031367
@<TRIPOS>BOND
     1     1     2 1   
     2     1    23 1   
     3     1    55 1   
     4     1    56 1   
     5     2     3 1   
     6     2     4 1   
     7     2    57 1   
     8     3    34 1   
     9     3    58 1   
    10     4     5 1   
    11     4     6 1   
    12     4    59 1   
    13     5    60 1   
    14     6     7 1   
    15     6     8 1   
    16     6    61 1   
    17     7    62 1   
    18     8     9 1   
    19     8    63 1   
    20     8    64 1   
    21     9    10 1   
    22     9    65 1   
    23     9    66 1   
    24    10    11 1   
    25    10    67 1   
    26    10    68 1   
    27    11    12 1   
    28    11    69 1   
    29    11    70 1   
    30    12    13 1   
    31    12    71 1   
    32    12    72 1   
    33    13    14 1   
    34    13    73 1   
    35    13    74 1   
    36    14    15 1   
    37    14    75 1   
    38    14    76 1   
    39    15    16 1   
    40    15    77 1   
    41    15    78 1   
    42    16    17 1   
    43    16    79 1   
    44    16    80 1   
    45    17    18 1   
    46    17    81 1   
    47    17    82 1   
    48    18    19 1   
    49    18    83 1   
    50    18    84 1   
    51    19    20 1   
    52    19    85 1   
    53    19    86 1   
    54    20    21 1   
    55    20    87 1   
    56    20    88 1   
    57    21    89 1   
    58    21    90 1   
    59    21    91 1   
    60    22    23 1   
    61    22    24 1   
    62    22    33 1   
    63    22    92 1   
    64    24    25 1   
    65    24    26 1   
    66    24    93 1   
    67    25    94 1   
    68    26    27 1   
    69    26    28 1   
    70    26    95 1   
    71    27    96 1   
    72    28    29 1   
    73    28    31 1   
    74    28    97 1   
    75    29    98 1   
    76    30    32 1   
    77    30    99 1   
    78    31    32 1   
    79    31    33 1   
    80    31   100 1   
    81    32   101 1   
    82    32   102 1   
    83    34    35 2   
    84    34    36 1   
    85    36    37 1   
    86    36   103 1   
    87    36   104 1   
    88    37    38 1   
    89    37   105 1   
    90    37   106 1   
    91    38    39 1   
    92    38   107 1   
    93    38   108 1   
    94    39    40 1   
    95    39   109 1   
    96    39   110 1   
    97    40    41 1   
    98    40   111 1   
    99    40   112 1   
   100    41    42 1   
   101    41   113 1   
   102    41   114 1   
   103    42    43 1   
   104    42   115 1   
   105    42   116 1   
   106    43    44 1   
   107    43   117 1   
   108    43   118 1   
   109    44    45 1   
   110    44   119 1   
   111    44   120 1   
   112    45    46 2   
   113    45   121 1   
   114    46    47 1   
   115    46   122 1   
   116    47    48 1   
   117    47   123 1   
   118    47   124 1   
   119    48    49 2   
   120    48   125 1   
   121    49    50 1   
   122    49   126 1   
   123    50    51 1   
   124    50   127 1   
   125    50   128 1   
   126    51    52 1   
   127    51   129 1   
   128    51   130 1   
   129    52    53 1   
   130    52   131 1   
   131    52   132 1   
   132    53    54 1   
   133    53   133 1   
   134    53   134 1   
   135    54   135 1   
   136    54   136 1   
   137    54   137 1   
@<TRIPOS>SUBSTRUCTURE
     1 DB3         1 TEMP              0 ****  ****    0 ROOT
