@<TRIPOS>MOLECULE
DB3
  137   137     1     0     0
SMALL
No Charge or Current Charge


@<TRIPOS>ATOM
      1 C1          -1.8160     3.1920     2.2160 c3         1 DB3       0.146600
      2 C2          -2.3450     1.7300     2.1800 c3         1 DB3       0.088700
      3 N2          -1.3140     0.8250     1.6420 ns         1 DB3      -0.501900
      4 C3          -3.7280     1.6100     1.4480 c3         1 DB3       0.127300
      5 O3          -4.6870     2.4150     2.1690 oh         1 DB3      -0.638000
      6 C4          -4.2740     0.1420     1.2800 c3         1 DB3       0.135300
      7 O4          -3.4350    -0.6070     0.3840 oh         1 DB3      -0.639000
      8 C5          -5.7300     0.0730     0.7380 c3         1 DB3      -0.107400
      9 C6          -6.3280    -1.3550     0.6790 c3         1 DB3      -0.072400
     10 C7          -7.8130    -1.3600     0.2540 c3         1 DB3      -0.075400
     11 C8          -8.4460    -2.7690     0.2490 c3         1 DB3      -0.074400
     12 C9          -9.9460    -2.7470    -0.1160 c3         1 DB3      -0.074400
     13 C10        -10.6050    -4.1440    -0.0800 c3         1 DB3      -0.074400
     14 C11        -12.1160    -4.1030    -0.3990 c3         1 DB3      -0.074400
     15 C12        -12.7870    -5.4920    -0.3340 c3         1 DB3      -0.074400
     16 C13        -14.3030    -5.4440    -0.6260 c3         1 DB3      -0.074400
     17 C14        -14.9790    -6.8300    -0.5450 c3         1 DB3      -0.074400
     18 C15        -16.4960    -6.7810    -0.8290 c3         1 DB3      -0.074400
     19 C16        -17.1730    -8.1670    -0.7430 c3         1 DB3      -0.075400
     20 C17        -18.6900    -8.1170    -1.0280 c3         1 DB3      -0.074400
     21 C18        -19.3680    -9.4980    -0.9420 c3         1 DB3      -0.088100
     22 C1A         -1.0510     4.9660     0.7080 c6         1 DB3       0.358300
     23 O1A         -1.5900     3.6390     0.8630 os         1 DB3      -0.474000
     24 C2A         -1.0510     5.3750    -0.8040 c6         1 DB3       0.116300
     25 O2A         -2.3620     5.2180    -1.4020 oh         1 DB3      -0.710000
     26 C3A         -0.0050     4.5280    -1.5970 c6         1 DB3       0.140300
     27 O3A          0.0710     4.9930    -2.9590 oh         1 DB3      -0.674000
     28 C4A          1.3990     4.5860    -0.9240 c6         1 DB3       0.148300
     29 O4A          1.9480     5.9090    -1.0940 oh         1 DB3      -0.713000
     30 O5A          2.5050     3.8200     2.7280 oh         1 DB3      -0.714000
     31 C5M          1.2510     4.1770     0.5770 c6         1 DB3       0.172300
     32 C6A          2.6110     4.2300     1.3490 c3         1 DB3       0.170600
     33 O6A          0.2850     5.0260     1.2550 os         1 DB3      -0.449000
     34 CAA         -0.2020     0.4020     2.3330 c          1 DB3       0.617100
     35 OAA         -0.0050     0.7070     3.5010 o          1 DB3      -0.603100
     36 CAB          0.7490    -0.5100     1.5480 c3         1 DB3      -0.149400
     37 CAC          2.0570     0.2320     1.1880 c3         1 DB3      -0.064400
     38 CAD          3.0950    -0.6510     0.4640 c3         1 DB3      -0.076400
     39 CAE          4.4060     0.1060     0.1570 c3         1 DB3      -0.075400
     40 CAF          5.4540    -0.7600    -0.5760 c3         1 DB3      -0.073400
     41 CAG          6.7810    -0.0120    -0.8280 c3         1 DB3      -0.075400
     42 CAH          7.8270    -0.8680    -1.5770 c3         1 DB3      -0.074400
     43 CAI          9.1700    -0.1330    -1.7860 c3         1 DB3      -0.073400
     44 CAJ         10.2120    -0.9750    -2.5510 c3         1 DB3      -0.043200
     45 CAK         11.5320    -0.2410    -2.7040 c2         1 DB3      -0.217200
     46 CAL         12.5870    -0.2750    -1.8690 c2         1 DB3      -0.211200
     47 CAM         12.7070    -1.0300    -0.5570 c3         1 DB3      -0.009000
     48 CAN         13.9430    -1.9040    -0.5520 c2         1 DB3      -0.216200
     49 CAO         14.8710    -1.9350     0.4180 c2         1 DB3      -0.219200
     50 CAP         16.1090    -2.8090     0.4180 c3         1 DB3      -0.040200
     51 CAQ         17.4070    -1.9740     0.4070 c3         1 DB3      -0.072400
     52 CAR         18.6870    -2.8380     0.3930 c3         1 DB3      -0.076400
     53 CAS         19.9840    -1.9980     0.3910 c3         1 DB3      -0.075400
     54 CAT         21.2600    -2.8600     0.3700 c3         1 DB3      -0.088100
     55 H1          -2.5440     3.8410     2.7210 h1         1 DB3       0.050700
     56 H1A         -0.8850     3.2240     2.7970 h1         1 DB3       0.050700
     57 H2          -2.5130     1.4290     3.2230 h1         1 DB3       0.090700
     58 HN2         -1.4490     0.4500     0.7110 hn         1 DB3       0.307500
     59 H3          -3.6050     2.0200     0.4360 h1         1 DB3       0.077700
     60 HO3         -4.9220     1.9370     2.9940 ho         1 DB3       0.438000
     61 H4          -4.2600    -0.3310     2.2730 h1         1 DB3       0.069700
     62 HO4         -3.9540    -0.7600    -0.4340 ho         1 DB3       0.434000
     63 H5          -6.3840     0.6750     1.3810 hc         1 DB3       0.049200
     64 H5A         -5.7730     0.5310    -0.2590 hc         1 DB3       0.049200
     65 H6          -5.7540    -1.9740    -0.0220 hc         1 DB3       0.044200
     66 H6A         -6.2370    -1.8220     1.6680 hc         1 DB3       0.044200
     67 H7          -8.3820    -0.7170     0.9380 hc         1 DB3       0.036700
     68 H7A         -7.9040    -0.9200    -0.7470 hc         1 DB3       0.036700
     69 H8          -7.9070    -3.4070    -0.4620 hc         1 DB3       0.038200
     70 H8A         -8.3250    -3.2200     1.2420 hc         1 DB3       0.038200
     71 H9         -10.4750    -2.0860     0.5820 hc         1 DB3       0.037200
     72 H9A        -10.0680    -2.3170    -1.1180 hc         1 DB3       0.037200
     73 H10        -10.0990    -4.8010    -0.7990 hc         1 DB3       0.037200
     74 H10A       -10.4590    -4.5840     0.9140 hc         1 DB3       0.037200
     75 H11        -12.6140    -3.4300     0.3110 hc         1 DB3       0.037200
     76 H11A       -12.2620    -3.6770    -1.4000 hc         1 DB3       0.037200
     77 H12        -12.3020    -6.1620    -1.0540 hc         1 DB3       0.037200
     78 H12A       -12.6270    -5.9220     0.6630 hc         1 DB3       0.037200
     79 H13        -14.7870    -4.7660     0.0900 hc         1 DB3       0.037200
     80 H13A       -14.4650    -5.0220    -1.6260 hc         1 DB3       0.037200
     81 H14        -14.4990    -7.5070    -1.2630 hc         1 DB3       0.036700
     82 H14A       -14.8140    -7.2530     0.4540 hc         1 DB3       0.036700
     83 H15        -16.9750    -6.1020    -0.1120 hc         1 DB3       0.036700
     84 H15A       -16.6620    -6.3610    -1.8290 hc         1 DB3       0.036700
     85 H16        -16.6940    -8.8470    -1.4590 hc         1 DB3       0.036700
     86 H16A       -17.0080    -8.5870     0.2570 hc         1 DB3       0.036700
     87 H17        -19.1720    -7.4380    -0.3120 hc         1 DB3       0.036700
     88 H17A       -18.8580    -7.6990    -2.0280 hc         1 DB3       0.036700
     89 H18        -19.2490    -9.9280     0.0600 hc         1 DB3       0.031367
     90 H18A       -20.4410    -9.4100    -1.1520 hc         1 DB3       0.031367
     91 H18B       -18.9310   -10.1900    -1.6710 hc         1 DB3       0.031367
     92 H1AA        -1.6910     5.6760     1.2550 h2         1 DB3       0.069700
     93 H2A         -0.7490     6.4320    -0.8550 h1         1 DB3       0.063700
     94 HO2A        -2.7660     4.4330    -0.9600 ho         1 DB3       0.511000
     95 H3A         -0.3370     3.4780    -1.5830 h1         1 DB3       0.060700
     96 HO3A        -0.8640     5.1560    -3.2270 ho         1 DB3       0.469000
     97 H4A          2.0480     3.8480    -1.4200 h1         1 DB3       0.047700
     98 HO4A         1.6690     6.1700    -2.0060 ho         1 DB3       0.521000
     99 HO5A         3.3720     4.0110     3.1530 ho         1 DB3       0.505000
    100 H5M          0.8910     3.1400     0.6230 h1         1 DB3       0.051700
    101 H6AA         2.9990     5.2560     1.2930 h1         1 DB3       0.036700
    102 H6AB         3.3260     3.5840     0.8210 h1         1 DB3       0.036700
    103 HAB          1.0010    -1.3750     2.1740 hc         1 DB3       0.050700
    104 HABA         0.2710    -0.8490     0.6210 hc         1 DB3       0.050700
    105 HAC          1.8170     1.0900     0.5490 hc         1 DB3       0.056700
    106 HACA         2.5080     0.6330     2.1060 hc         1 DB3       0.056700
    107 HAD          3.3210    -1.5270     1.0850 hc         1 DB3       0.033200
    108 HADA         2.6620    -1.0230    -0.4730 hc         1 DB3       0.033200
    109 HAE          4.1790     0.9890    -0.4550 hc         1 DB3       0.039700
    110 HAEA         4.8380     0.4710     1.0980 hc         1 DB3       0.039700
    111 HAF          5.6570    -1.6610     0.0180 hc         1 DB3       0.036700
    112 HAFA         5.0370    -1.0940    -1.5350 hc         1 DB3       0.036700
    113 HAG          6.5800     0.8980    -1.4080 hc         1 DB3       0.038200
    114 HAGA         7.2020     0.3070     0.1340 hc         1 DB3       0.038200
    115 HAH          8.0080    -1.7920    -1.0130 hc         1 DB3       0.037200
    116 HAHA         7.4200    -1.1620    -2.5530 hc         1 DB3       0.037200
    117 HAI          8.9910     0.8000    -2.3350 hc         1 DB3       0.039700
    118 HAIA         9.5840     0.1440    -0.8080 hc         1 DB3       0.039700
    119 HAJ         10.3550    -1.9310    -2.0340 hc         1 DB3       0.043700
    120 HAJA         9.8150    -1.2280    -3.5420 hc         1 DB3       0.043700
    121 HAK         11.5900     0.3630    -3.6120 ha         1 DB3       0.165000
    122 HAL         13.4780     0.3080    -2.1130 ha         1 DB3       0.168000
    123 HAM         12.7480    -0.3110     0.2720 hc         1 DB3       0.050200
    124 HAMA        11.8240    -1.6490    -0.3680 hc         1 DB3       0.050200
    125 HAN         14.0410    -2.5440    -1.4320 ha         1 DB3       0.168000
    126 HAO         14.7720    -1.2970     1.3000 ha         1 DB3       0.164000
    127 HAP         16.1040    -3.4560     1.3040 hc         1 DB3       0.043700
    128 HAPA        16.1060    -3.4750    -0.4550 hc         1 DB3       0.043700
    129 HAQ         17.4040    -1.3210    -0.4740 hc         1 DB3       0.039200
    130 HAQA        17.4220    -1.3220     1.2900 hc         1 DB3       0.039200
    131 HAR         18.6880    -3.4970     1.2710 hc         1 DB3       0.037200
    132 HARA        18.6770    -3.4840    -0.4940 hc         1 DB3       0.037200
    133 HAS         19.9870    -1.3350    -0.4830 hc         1 DB3       0.036700
    134 HASA        20.0020    -1.3550     1.2810 hc         1 DB3       0.036700
    135 HAT         22.1530    -2.2230     0.3720 hc         1 DB3       0.031367
    136 HATA        21.3020    -3.5130     1.2500 hc         1 DB3       0.031367
    137 HATB        21.2880    -3.4880    -0.5290 hc         1 DB3       0.031367
@<TRIPOS>BOND
     1     1     2 1   
     2     1    23 1   
     3     1    55 1   
     4     1    56 1   
     5     2     3 1   
     6     2     4 1   
     7     2    57 1   
     8     3    34 1   
     9     3    58 1   
    10     4     5 1   
    11     4     6 1   
    12     4    59 1   
    13     5    60 1   
    14     6     7 1   
    15     6     8 1   
    16     6    61 1   
    17     7    62 1   
    18     8     9 1   
    19     8    63 1   
    20     8    64 1   
    21     9    10 1   
    22     9    65 1   
    23     9    66 1   
    24    10    11 1   
    25    10    67 1   
    26    10    68 1   
    27    11    12 1   
    28    11    69 1   
    29    11    70 1   
    30    12    13 1   
    31    12    71 1   
    32    12    72 1   
    33    13    14 1   
    34    13    73 1   
    35    13    74 1   
    36    14    15 1   
    37    14    75 1   
    38    14    76 1   
    39    15    16 1   
    40    15    77 1   
    41    15    78 1   
    42    16    17 1   
    43    16    79 1   
    44    16    80 1   
    45    17    18 1   
    46    17    81 1   
    47    17    82 1   
    48    18    19 1   
    49    18    83 1   
    50    18    84 1   
    51    19    20 1   
    52    19    85 1   
    53    19    86 1   
    54    20    21 1   
    55    20    87 1   
    56    20    88 1   
    57    21    89 1   
    58    21    90 1   
    59    21    91 1   
    60    22    23 1   
    61    22    24 1   
    62    22    33 1   
    63    22    92 1   
    64    24    25 1   
    65    24    26 1   
    66    24    93 1   
    67    25    94 1   
    68    26    27 1   
    69    26    28 1   
    70    26    95 1   
    71    27    96 1   
    72    28    29 1   
    73    28    31 1   
    74    28    97 1   
    75    29    98 1   
    76    30    32 1   
    77    30    99 1   
    78    31    32 1   
    79    31    33 1   
    80    31   100 1   
    81    32   101 1   
    82    32   102 1   
    83    34    35 2   
    84    34    36 1   
    85    36    37 1   
    86    36   103 1   
    87    36   104 1   
    88    37    38 1   
    89    37   105 1   
    90    37   106 1   
    91    38    39 1   
    92    38   107 1   
    93    38   108 1   
    94    39    40 1   
    95    39   109 1   
    96    39   110 1   
    97    40    41 1   
    98    40   111 1   
    99    40   112 1   
   100    41    42 1   
   101    41   113 1   
   102    41   114 1   
   103    42    43 1   
   104    42   115 1   
   105    42   116 1   
   106    43    44 1   
   107    43   117 1   
   108    43   118 1   
   109    44    45 1   
   110    44   119 1   
   111    44   120 1   
   112    45    46 2   
   113    45   121 1   
   114    46    47 1   
   115    46   122 1   
   116    47    48 1   
   117    47   123 1   
   118    47   124 1   
   119    48    49 2   
   120    48   125 1   
   121    49    50 1   
   122    49   126 1   
   123    50    51 1   
   124    50   127 1   
   125    50   128 1   
   126    51    52 1   
   127    51   129 1   
   128    51   130 1   
   129    52    53 1   
   130    52   131 1   
   131    52   132 1   
   132    53    54 1   
   133    53   133 1   
   134    53   134 1   
   135    54   135 1   
   136    54   136 1   
   137    54   137 1   
@<TRIPOS>SUBSTRUCTURE
     1 DB3         1 TEMP              0 ****  ****    0 ROOT
