@<TRIPOS>MOLECULE
DB4
   64    64     1     0     0
SMALL
abcg2


@<TRIPOS>ATOM
      1 O10        -39.3630     0.5060   -14.9890 o          1 DB4      -0.492000
      2 C14        -40.1830     1.3960   -14.9440 c          1 DB4       0.586100
      3 C15        -40.9710     1.8980   -16.1270 c3         1 DB4      -0.140400
      4 C16        -41.3790     0.7800   -17.0880 c3         1 DB4      -0.064400
      5 C17        -42.3770    -0.1980   -16.4730 c3         1 DB4      -0.092100
      6 O9         -40.4870     2.0740   -13.8240 os         1 DB4      -0.458100
      7 C9         -39.8010     1.7260   -12.6040 c3         1 DB4       0.160600
      8 C8         -39.3250     2.9850   -11.9220 c3         1 DB4       0.154300
      9 O7         -40.5040     3.7400   -11.5590 os         1 DB4      -0.439100
     10 C10        -40.3630     5.0540   -11.3160 c          1 DB4       0.623100
     11 O8         -39.3170     5.6490   -11.4570 o          1 DB4      -0.513000
     12 C11        -41.6650     5.6650   -10.8740 c3         1 DB4      -0.129400
     13 C12        -41.5380     7.1030   -10.3890 c3         1 DB4      -0.067400
     14 C13        -42.8820     7.6750    -9.9450 c3         1 DB4      -0.085100
     15 C7         -38.4960     2.6730   -10.6880 c3         1 DB4       0.198600
     16 O13        -39.2610     1.8910    -9.7700 os         1 DB4      -0.603400
     17 P1         -39.5350     2.4270    -8.2550 p5         1 DB4       1.411800
     18 O11        -39.7720     3.9000    -8.2470 o          1 DB4      -0.835500
     19 O12        -40.5260     1.4700    -7.6820 o          1 DB4      -0.835500
     20 O1         -38.0710     2.2300    -7.5550 os         1 DB4      -0.610400
     21 C1         -37.4830     0.9240    -7.4810 c6         1 DB4       0.202300
     22 C2         -37.8110     0.2170    -6.1790 c6         1 DB4       0.136300
     23 O2         -37.3320     0.9880    -5.0780 oh         1 DB4      -0.665500
     24 C3         -37.1740    -1.1740    -6.1850 c6         1 DB4       0.152300
     25 O3         -37.3750    -1.7920    -4.9080 oh         1 DB4      -0.705000
     26 C4         -35.6720    -1.1390    -6.4470 c6         1 DB4       0.214300
     27 O4         -35.2410    -2.4780    -6.6460 os         1 DB4      -0.598400
     28 P4         -33.7610    -3.0070    -6.0540 p5         1 DB4       1.299900
     29 O43        -32.7230    -2.2300    -6.8860 o          1 DB4      -0.909500
     30 O42        -33.8010    -4.4910    -6.3640 o          1 DB4      -0.909500
     31 O41        -33.7310    -2.6460    -4.5790 o          1 DB4      -0.909500
     32 C5         -35.3000    -0.2850    -7.6720 c6         1 DB4       0.152300
     33 O5         -33.9020    -0.0820    -7.7480 oh         1 DB4      -0.705000
     34 C6         -35.9800     1.0780    -7.6620 c6         1 DB4       0.136300
     35 O6         -35.6910     1.7300    -8.8990 oh         1 DB4      -0.665500
     36 H1         -40.3250     2.6180   -16.6390 hc         1 DB4       0.063700
     37 H2         -41.8420     2.4480   -15.7690 hc         1 DB4       0.063700
     38 H3         -40.4850     0.2460   -17.4160 hc         1 DB4       0.039200
     39 H4         -41.8150     1.2420   -17.9770 hc         1 DB4       0.039200
     40 H5         -42.6570    -0.9740   -17.1890 hc         1 DB4       0.035367
     41 H6         -41.9560    -0.6940   -15.5940 hc         1 DB4       0.035367
     42 H7         -43.2880     0.3180   -16.1620 hc         1 DB4       0.035367
     43 H8         -40.5050     1.1840   -11.9750 h1         1 DB4       0.090700
     44 H9         -38.9500     1.0880   -12.8290 h1         1 DB4       0.090700
     45 H10        -38.7190     3.5770   -12.6100 h1         1 DB4       0.046700
     46 H11        -42.3570     5.6000   -11.7210 hc         1 DB4       0.069200
     47 H12        -42.0830     5.0230   -10.0950 hc         1 DB4       0.069200
     48 H13        -40.8270     7.1410    -9.5600 hc         1 DB4       0.055200
     49 H14        -41.1160     7.7190   -11.1870 hc         1 DB4       0.055200
     50 H15        -42.7740     8.7040    -9.5990 hc         1 DB4       0.021367
     51 H16        -43.6010     7.6700   -10.7680 hc         1 DB4       0.021367
     52 H17        -43.3060     7.0870    -9.1280 hc         1 DB4       0.021367
     53 H18        -37.6150     2.1010   -10.9870 h1         1 DB4       0.058200
     54 H19        -38.1700     3.6030   -10.2260 h1         1 DB4       0.058200
     55 H21        -37.8670     0.3110    -8.3030 h1         1 DB4       0.038700
     56 H22        -38.8980     0.1060    -6.1070 h1         1 DB4       0.048200
     57 H23        -37.3360     0.3950    -4.3130 ho         1 DB4       0.428000
     58 H24        -37.6490    -1.7730    -6.9680 h1         1 DB4       0.023200
     59 H25        -38.2990    -2.0640    -4.8450 ho         1 DB4       0.469500
     60 H26        -35.1770    -0.7150    -5.5670 h1         1 DB4       0.059700
     61 H29        -35.6550    -0.8250    -8.5630 h1         1 DB4       0.023200
     62 H30        -33.4290    -0.9230    -7.4550 ho         1 DB4       0.469500
     63 H31        -35.5770     1.6690    -6.8330 h1         1 DB4       0.048200
     64 H32        -36.1830     2.5620    -8.8970 ho         1 DB4       0.428000
@<TRIPOS>BOND
     1     1     2 2   
     2     2     3 1   
     3     2     6 1   
     4     3     4 1   
     5     3    36 1   
     6     3    37 1   
     7     4     5 1   
     8     4    38 1   
     9     4    39 1   
    10     5    40 1   
    11     5    41 1   
    12     5    42 1   
    13     6     7 1   
    14     7     8 1   
    15     7    43 1   
    16     7    44 1   
    17     8     9 1   
    18     8    15 1   
    19     8    45 1   
    20     9    10 1   
    21    10    11 2   
    22    10    12 1   
    23    12    13 1   
    24    12    46 1   
    25    12    47 1   
    26    13    14 1   
    27    13    48 1   
    28    13    49 1   
    29    14    50 1   
    30    14    51 1   
    31    14    52 1   
    32    15    16 1   
    33    15    53 1   
    34    15    54 1   
    35    16    17 1   
    36    17    18 1   
    37    17    19 1   
    38    17    20 1   
    39    20    21 1   
    40    21    22 1   
    41    21    34 1   
    42    21    55 1   
    43    22    23 1   
    44    22    24 1   
    45    22    56 1   
    46    23    57 1   
    47    24    25 1   
    48    24    26 1   
    49    24    58 1   
    50    25    59 1   
    51    26    27 1   
    52    26    32 1   
    53    26    60 1   
    54    27    28 1   
    55    28    29 1   
    56    28    30 1   
    57    28    31 1   
    58    32    33 1   
    59    32    34 1   
    60    32    61 1   
    61    33    62 1   
    62    34    35 1   
    63    34    63 1   
    64    35    64 1   
@<TRIPOS>SUBSTRUCTURE
     1 DB4         1 TEMP              0 ****  ****    0 ROOT
