@<TRIPOS>MOLECULE
DB4
   64    64     1     0     0
SMALL
No Charge or Current Charge


@<TRIPOS>ATOM
      1 O10        -39.1190     1.9440   -15.2400 o          1 DB4      -0.492000
      2 C14        -40.3320     1.9880   -15.0910 c          1 DB4       0.586100
      3 C15        -41.3170     2.2410   -16.2360 c3         1 DB4      -0.140400
      4 C16        -41.5890     0.9660   -17.0730 c3         1 DB4      -0.064400
      5 C17        -42.2540    -0.1780   -16.2800 c3         1 DB4      -0.092100
      6 O9         -40.9760     1.8150   -13.8920 os         1 DB4      -0.458100
      7 C9         -40.1880     1.6110   -12.6920 c3         1 DB4       0.160600
      8 C8         -39.5270     2.9470   -12.2490 c3         1 DB4       0.154300
      9 O7         -40.5870     3.8470   -11.8360 os         1 DB4      -0.439100
     10 C10        -40.3290     5.1910   -11.7510 c          1 DB4       0.623100
     11 O8         -39.2380     5.7050   -11.9640 o          1 DB4      -0.513000
     12 C11        -41.5870     5.9930   -11.4020 c3         1 DB4      -0.129400
     13 C12        -41.6820     6.2960    -9.8890 c3         1 DB4      -0.067400
     14 C13        -42.9020     7.1640    -9.5230 c3         1 DB4      -0.085100
     15 C7         -38.4930     2.7360   -11.1020 c3         1 DB4       0.198600
     16 O13        -39.0990     1.9930   -10.0290 os         1 DB4      -0.603400
     17 P1         -39.1710     2.6050    -8.5410 p5         1 DB4       1.411800
     18 O11        -39.4200     4.0740    -8.5580 o          1 DB4      -0.835500
     19 O12        -40.1780     1.8840    -7.7110 o          1 DB4      -0.835500
     20 O1         -37.6530     2.2760    -8.1010 os         1 DB4      -0.610400
     21 C1         -37.2690     0.9250    -7.7400 c6         1 DB4       0.202300
     22 C2         -37.6760     0.5140    -6.2800 c6         1 DB4       0.136300
     23 O2         -37.1240     1.4010    -5.2820 oh         1 DB4      -0.665500
     24 C3         -37.2350    -0.9570    -6.0140 c6         1 DB4       0.152300
     25 O3         -37.6020    -1.3780    -4.6850 oh         1 DB4      -0.705000
     26 C4         -35.7050    -1.1540    -6.2470 c6         1 DB4       0.214300
     27 O4         -35.3420    -2.5170    -5.9110 os         1 DB4      -0.598400
     28 P4         -33.9450    -2.8120    -5.1770 p5         1 DB4       1.299900
     29 O43        -32.8500    -2.2780    -6.0260 o          1 DB4      -0.909500
     30 O42        -33.7890    -4.2810    -5.0150 o          1 DB4      -0.909500
     31 O41        -33.9420    -2.1550    -3.8440 o          1 DB4      -0.909500
     32 C5         -35.2910    -0.7400    -7.7060 c6         1 DB4       0.152300
     33 O5         -33.8730    -0.9080    -7.9410 oh         1 DB4      -0.705000
     34 C6         -35.7360     0.7410    -7.9790 c6         1 DB4       0.136300
     35 O6         -35.4190     1.1750    -9.3190 oh         1 DB4      -0.665500
     36 H1         -40.8980     3.0060   -16.8990 hc         1 DB4       0.063700
     37 H2         -42.2750     2.5840   -15.8250 hc         1 DB4       0.063700
     38 H3         -40.6460     0.6050   -17.5030 hc         1 DB4       0.039200
     39 H4         -42.2380     1.2310   -17.9170 hc         1 DB4       0.039200
     40 H5         -42.4660    -1.0260   -16.9420 hc         1 DB4       0.035367
     41 H6         -41.5990    -0.5320   -15.4750 hc         1 DB4       0.035367
     42 H7         -43.2010     0.1550   -15.8370 hc         1 DB4       0.035367
     43 H8         -40.8290     1.2530   -11.8760 h1         1 DB4       0.090700
     44 H9         -39.4140     0.8490   -12.8560 h1         1 DB4       0.090700
     45 H10        -38.9890     3.3690   -13.1070 h1         1 DB4       0.046700
     46 H11        -41.5690     6.9390   -11.9540 hc         1 DB4       0.069200
     47 H12        -42.4720     5.4050   -11.6730 hc         1 DB4       0.069200
     48 H13        -41.7400     5.3510    -9.3330 hc         1 DB4       0.055200
     49 H14        -40.7690     6.8060    -9.5600 hc         1 DB4       0.055200
     50 H15        -42.9300     7.3480    -8.4430 hc         1 DB4       0.021367
     51 H16        -42.8560     8.1320   -10.0360 hc         1 DB4       0.021367
     52 H17        -43.8350     6.6630    -9.8100 hc         1 DB4       0.021367
     53 H18        -37.6410     2.1730   -11.5050 h1         1 DB4       0.058200
     54 H19        -38.1030     3.7050   -10.7650 h1         1 DB4       0.058200
     55 H21        -37.7890     0.2370    -8.4250 h1         1 DB4       0.038700
     56 H22        -38.7710     0.5270    -6.2060 h1         1 DB4       0.048200
     57 H23        -37.2940     0.9560    -4.4220 ho         1 DB4       0.428000
     58 H24        -37.7600    -1.5930    -6.7420 h1         1 DB4       0.023200
     59 H25        -37.0000    -2.1340    -4.4900 ho         1 DB4       0.469500
     60 H26        -35.1800    -0.4770    -5.5560 h1         1 DB4       0.059700
     61 H29        -35.8460    -1.3900    -8.4000 h1         1 DB4       0.023200
     62 H30        -33.5120    -1.4720    -7.1830 ho         1 DB4       0.469500
     63 H31        -35.2100     1.3860    -7.2590 h1         1 DB4       0.048200
     64 H32        -35.9820     1.9700    -9.4530 ho         1 DB4       0.428000
@<TRIPOS>BOND
     1     1     2 2   
     2     2     3 1   
     3     2     6 1   
     4     3     4 1   
     5     3    36 1   
     6     3    37 1   
     7     4     5 1   
     8     4    38 1   
     9     4    39 1   
    10     5    40 1   
    11     5    41 1   
    12     5    42 1   
    13     6     7 1   
    14     7     8 1   
    15     7    43 1   
    16     7    44 1   
    17     8     9 1   
    18     8    15 1   
    19     8    45 1   
    20     9    10 1   
    21    10    11 2   
    22    10    12 1   
    23    12    13 1   
    24    12    46 1   
    25    12    47 1   
    26    13    14 1   
    27    13    48 1   
    28    13    49 1   
    29    14    50 1   
    30    14    51 1   
    31    14    52 1   
    32    15    16 1   
    33    15    53 1   
    34    15    54 1   
    35    16    17 1   
    36    17    18 1   
    37    17    19 1   
    38    17    20 1   
    39    20    21 1   
    40    21    22 1   
    41    21    34 1   
    42    21    55 1   
    43    22    23 1   
    44    22    24 1   
    45    22    56 1   
    46    23    57 1   
    47    24    25 1   
    48    24    26 1   
    49    24    58 1   
    50    25    59 1   
    51    26    27 1   
    52    26    32 1   
    53    26    60 1   
    54    27    28 1   
    55    28    29 1   
    56    28    30 1   
    57    28    31 1   
    58    32    33 1   
    59    32    34 1   
    60    32    61 1   
    61    33    62 1   
    62    34    35 1   
    63    34    63 1   
    64    35    64 1   
@<TRIPOS>SUBSTRUCTURE
     1 DB4         1 TEMP              0 ****  ****    0 ROOT
