@<TRIPOS>MOLECULE
DB6
  137   137     1     0     0
SMALL
No Charge or Current Charge


@<TRIPOS>ATOM
      1 C1          -1.7010     3.8410     2.2570 c3         1 DB6       0.144600
      2 C2          -2.3440     2.4410     2.4810 c3         1 DB6       0.088700
      3 N2          -1.3740     1.3650     2.2210 ns         1 DB6      -0.504900
      4 C3          -3.6740     2.2700     1.6630 c3         1 DB6       0.127300
      5 O3          -4.6360     3.2250     2.1630 oh         1 DB6      -0.641000
      6 C4          -4.2950     0.8210     1.6700 c3         1 DB6       0.139300
      7 O4          -3.4190    -0.1030     1.0000 oh         1 DB6      -0.638000
      8 C5          -5.6870     0.7400     0.9780 c3         1 DB6      -0.108400
      9 C6          -6.3550    -0.6580     1.0330 c3         1 DB6      -0.071400
     10 C7          -7.7740    -0.6690     0.4220 c3         1 DB6      -0.075400
     11 C8          -8.4380    -2.0630     0.4620 c3         1 DB6      -0.074400
     12 C9          -9.8580    -2.0730    -0.1450 c3         1 DB6      -0.074400
     13 C10        -10.5200    -3.4680    -0.1090 c3         1 DB6      -0.074400
     14 C11        -11.9420    -3.4780    -0.7140 c3         1 DB6      -0.074400
     15 C12        -12.6040    -4.8730    -0.6800 c3         1 DB6      -0.074400
     16 C13        -14.0240    -4.8820    -1.2870 c3         1 DB6      -0.074400
     17 C14        -14.6850    -6.2780    -1.2590 c3         1 DB6      -0.074400
     18 C15        -16.1030    -6.2870    -1.8700 c3         1 DB6      -0.074400
     19 C16        -16.7620    -7.6840    -1.8470 c3         1 DB6      -0.075400
     20 C17        -18.1800    -7.6950    -2.4580 c3         1 DB6      -0.075400
     21 C18        -18.8360    -9.0890    -2.4370 c3         1 DB6      -0.088100
     22 C1A         -0.5540     5.1350     0.5160 c6         1 DB6       0.359300
     23 O1A         -1.1840     3.9010     0.9110 os         1 DB6      -0.478000
     24 C2A         -0.1540     5.0770    -0.9970 c6         1 DB6       0.121300
     25 O2A         -1.2780     4.7250    -1.8380 oh         1 DB6      -0.706000
     26 C3A          0.9960     4.0450    -1.1950 c6         1 DB6       0.141300
     27 O3A          1.4260     4.0290    -2.5700 oh         1 DB6      -0.672000
     28 C4A          2.1890     4.3720    -0.2550 c6         1 DB6       0.143300
     29 O4A          3.2330     3.4020    -0.4490 oh         1 DB6      -0.720000
     30 O5A          2.3720     4.9610     3.5820 oh         1 DB6      -0.710000
     31 C5M          1.6820     4.4160     1.2190 c6         1 DB6       0.172300
     32 C6A          2.8220     4.8060     2.2190 c3         1 DB6       0.168600
     33 O6A          0.6070     5.3890     1.3410 os         1 DB6      -0.462000
     34 CAA         -0.2430     1.1090     2.9570 c          1 DB6       0.605100
     35 OAA          0.0480     1.7440     3.9590 o          1 DB6      -0.596100
     36 CAB          0.6000    -0.0650     2.4500 c3         1 DB6      -0.157400
     37 CAC          1.8830     0.4250     1.7380 c3         1 DB6      -0.073400
     38 CAD          2.7640    -0.7330     1.2230 c3         1 DB6      -0.078400
     39 CAE          4.0500    -0.2480     0.5190 c3         1 DB6      -0.071400
     40 CAF          4.9200    -1.4090    -0.0110 c3         1 DB6      -0.076400
     41 CAG          6.2160    -0.9300    -0.7020 c3         1 DB6      -0.074400
     42 CAH          7.0690    -2.0930    -1.2540 c3         1 DB6      -0.075400
     43 CAI          8.3750    -1.6220    -1.9300 c3         1 DB6      -0.072400
     44 CAJ          9.2110    -2.7840    -2.5070 c3         1 DB6      -0.040200
     45 CAK         10.5010    -2.3040    -3.1400 c2         1 DB6      -0.219200
     46 CAL         11.7340    -2.6660    -2.7520 c2         1 DB6      -0.214200
     47 CAM         13.0260    -2.1950    -3.3840 c3         1 DB6      -0.006000
     48 CAN         14.0020    -1.7320    -2.3240 c2         1 DB6      -0.216200
     49 CAO         15.2630    -2.1720    -2.1850 c2         1 DB6      -0.217200
     50 CAP         16.2380    -1.7070    -1.1230 c3         1 DB6      -0.041200
     51 CAQ         16.5890    -2.8330    -0.1270 c3         1 DB6      -0.072400
     52 CAR         17.5780    -2.3860     0.9720 c3         1 DB6      -0.076400
     53 CAS         17.9210    -3.5140     1.9700 c3         1 DB6      -0.074400
     54 CAT         18.9070    -3.0710     3.0680 c3         1 DB6      -0.088100
     55 H1          -2.4460     4.6290     2.4250 h1         1 DB6       0.049200
     56 H1A         -0.8940     3.9900     2.9850 h1         1 DB6       0.049200
     57 H2          -2.6090     2.3760     3.5450 h1         1 DB6       0.096700
     58 HN2         -1.5780     0.7320     1.4540 hn         1 DB6       0.312500
     59 H3          -3.4450     2.5060     0.6150 h1         1 DB6       0.079700
     60 HO3         -4.9700     2.8940     3.0250 ho         1 DB6       0.438000
     61 H4          -4.4200     0.5160     2.7190 h1         1 DB6       0.067700
     62 HO4         -3.8640    -0.9770     1.0060 ho         1 DB6       0.438000
     63 H5          -6.3700     1.4540     1.4540 hc         1 DB6       0.047700
     64 H5A         -5.5880     1.0530    -0.0690 hc         1 DB6       0.047700
     65 H6          -5.7370    -1.3870     0.4940 hc         1 DB6       0.045700
     66 H6A         -6.4110    -0.9910     2.0770 hc         1 DB6       0.045700
     67 H7          -8.4060     0.0460     0.9640 hc         1 DB6       0.036200
     68 H7A         -7.7200    -0.3260    -0.6190 hc         1 DB6       0.036200
     69 H8          -7.8090    -2.7780    -0.0830 hc         1 DB6       0.038700
     70 H8A         -8.4890    -2.4090     1.5020 hc         1 DB6       0.038700
     71 H9         -10.4890    -1.3610     0.4030 hc         1 DB6       0.036700
     72 H9A         -9.8090    -1.7250    -1.1840 hc         1 DB6       0.036700
     73 H10         -9.8910    -4.1800    -0.6580 hc         1 DB6       0.037700
     74 H10A       -10.5680    -3.8180     0.9300 hc         1 DB6       0.037700
     75 H11        -12.5710    -2.7670    -0.1640 hc         1 DB6       0.036700
     76 H11A       -11.8930    -3.1270    -1.7520 hc         1 DB6       0.036700
     77 H12        -11.9730    -5.5840    -1.2280 hc         1 DB6       0.037200
     78 H12A       -12.6540    -5.2230     0.3590 hc         1 DB6       0.037200
     79 H13        -14.6550    -4.1730    -0.7370 hc         1 DB6       0.036700
     80 H13A       -13.9740    -4.5280    -2.3250 hc         1 DB6       0.036700
     81 H14        -14.0520    -6.9870    -1.8080 hc         1 DB6       0.037200
     82 H14A       -14.7370    -6.6310    -0.2220 hc         1 DB6       0.037200
     83 H15        -16.7370    -5.5810    -1.3190 hc         1 DB6       0.036700
     84 H15A       -16.0520    -5.9310    -2.9060 hc         1 DB6       0.036700
     85 H16        -16.1270    -8.3910    -2.3970 hc         1 DB6       0.036700
     86 H16A       -16.8140    -8.0410    -0.8100 hc         1 DB6       0.036700
     87 H17        -18.8180    -6.9920    -1.9090 hc         1 DB6       0.036700
     88 H17A       -18.1310    -7.3400    -3.4950 hc         1 DB6       0.036700
     89 H18        -18.9300    -9.4580    -1.4090 hc         1 DB6       0.031367
     90 H18A       -19.8380    -9.0470    -2.8800 hc         1 DB6       0.031367
     91 H18B       -18.2370    -9.8080    -3.0100 hc         1 DB6       0.031367
     92 H1AA        -1.2720     5.9590     0.6520 h2         1 DB6       0.070700
     93 H2A          0.2230     6.0720    -1.2800 h1         1 DB6       0.056700
     94 HO2A        -1.8130     4.0790    -1.3150 ho         1 DB6       0.512000
     95 H3A          0.6100     3.0520    -0.9180 h1         1 DB6       0.063700
     96 HO3A         0.6020     4.1610    -3.0960 ho         1 DB6       0.466000
     97 H4A          2.5650     5.3740    -0.5150 h1         1 DB6       0.049700
     98 HO4A         3.2400     3.2400    -1.4240 ho         1 DB6       0.524000
     99 HO5A         3.1460     5.2660     4.1080 ho         1 DB6       0.504000
    100 H5M          1.3010     3.4260     1.5070 h1         1 DB6       0.065700
    101 H6AA         3.2760     5.7430     1.8670 h1         1 DB6       0.034700
    102 H6AB         3.5990     4.0310     2.1700 h1         1 DB6       0.034700
    103 HAB          0.8910    -0.6850     3.3060 hc         1 DB6       0.056200
    104 HABA         0.0180    -0.6620     1.7360 hc         1 DB6       0.056200
    105 HAC          1.6020     1.0670     0.8930 hc         1 DB6       0.057700
    106 HACA         2.4680     1.0460     2.4300 hc         1 DB6       0.057700
    107 HAD          3.0380    -1.3800     2.0650 hc         1 DB6       0.039700
    108 HADA         2.1810    -1.3460     0.5240 hc         1 DB6       0.039700
    109 HAE          3.7780     0.4070    -0.3180 hc         1 DB6       0.035200
    110 HAEA         4.6400     0.3550     1.2200 hc         1 DB6       0.035200
    111 HAF          5.1820    -2.0730     0.8220 hc         1 DB6       0.038200
    112 HAFA         4.3320    -2.0030    -0.7220 hc         1 DB6       0.038200
    113 HAG          5.9570    -0.2510    -1.5240 hc         1 DB6       0.036700
    114 HAGA         6.8140    -0.3520     0.0140 hc         1 DB6       0.036700
    115 HAH          7.3160    -2.7800    -0.4340 hc         1 DB6       0.037700
    116 HAHA         6.4730    -2.6620    -1.9790 hc         1 DB6       0.037700
    117 HAI          8.1320    -0.9190    -2.7370 hc         1 DB6       0.039700
    118 HAIA         8.9820    -1.0730    -1.1990 hc         1 DB6       0.039700
    119 HAJ          9.4240    -3.5020    -1.7060 hc         1 DB6       0.043200
    120 HAJA         8.6120    -3.3200    -3.2540 hc         1 DB6       0.043200
    121 HAK         10.3640    -1.6150    -3.9760 ha         1 DB6       0.165000
    122 HAL         11.8710    -3.3590    -1.9190 ha         1 DB6       0.169000
    123 HAM         13.4640    -3.0100    -3.9740 hc         1 DB6       0.048700
    124 HAMA        12.8310    -1.3780    -4.0890 hc         1 DB6       0.048700
    125 HAN         13.6000    -0.9790    -1.6440 ha         1 DB6       0.168000
    126 HAO         15.6660    -2.9240    -2.8670 ha         1 DB6       0.165000
    127 HAP         17.1570    -1.3440    -1.5980 hc         1 DB6       0.043700
    128 HAPA        15.8190    -0.8590    -0.5670 hc         1 DB6       0.043700
    129 HAQ         15.6660    -3.1940     0.3430 hc         1 DB6       0.039700
    130 HAQA        17.0200    -3.6780    -0.6780 hc         1 DB6       0.039700
    131 HAR         18.5020    -2.0280     0.5020 hc         1 DB6       0.037200
    132 HARA        17.1480    -1.5390     1.5210 hc         1 DB6       0.037200
    133 HAS         16.9990    -3.8740     2.4430 hc         1 DB6       0.037200
    134 HASA        18.3530    -4.3630     1.4250 hc         1 DB6       0.037200
    135 HAT         19.1180    -3.9030     3.7500 hc         1 DB6       0.031367
    136 HATA        19.8550    -2.7390     2.6280 hc         1 DB6       0.031367
    137 HATB        18.4880    -2.2440     3.6540 hc         1 DB6       0.031367
@<TRIPOS>BOND
     1     1     2 1   
     2     1    23 1   
     3     1    55 1   
     4     1    56 1   
     5     2     3 1   
     6     2     4 1   
     7     2    57 1   
     8     3    34 1   
     9     3    58 1   
    10     4     5 1   
    11     4     6 1   
    12     4    59 1   
    13     5    60 1   
    14     6     7 1   
    15     6     8 1   
    16     6    61 1   
    17     7    62 1   
    18     8     9 1   
    19     8    63 1   
    20     8    64 1   
    21     9    10 1   
    22     9    65 1   
    23     9    66 1   
    24    10    11 1   
    25    10    67 1   
    26    10    68 1   
    27    11    12 1   
    28    11    69 1   
    29    11    70 1   
    30    12    13 1   
    31    12    71 1   
    32    12    72 1   
    33    13    14 1   
    34    13    73 1   
    35    13    74 1   
    36    14    15 1   
    37    14    75 1   
    38    14    76 1   
    39    15    16 1   
    40    15    77 1   
    41    15    78 1   
    42    16    17 1   
    43    16    79 1   
    44    16    80 1   
    45    17    18 1   
    46    17    81 1   
    47    17    82 1   
    48    18    19 1   
    49    18    83 1   
    50    18    84 1   
    51    19    20 1   
    52    19    85 1   
    53    19    86 1   
    54    20    21 1   
    55    20    87 1   
    56    20    88 1   
    57    21    89 1   
    58    21    90 1   
    59    21    91 1   
    60    22    23 1   
    61    22    24 1   
    62    22    33 1   
    63    22    92 1   
    64    24    25 1   
    65    24    26 1   
    66    24    93 1   
    67    25    94 1   
    68    26    27 1   
    69    26    28 1   
    70    26    95 1   
    71    27    96 1   
    72    28    29 1   
    73    28    31 1   
    74    28    97 1   
    75    29    98 1   
    76    30    32 1   
    77    30    99 1   
    78    31    32 1   
    79    31    33 1   
    80    31   100 1   
    81    32   101 1   
    82    32   102 1   
    83    34    35 2   
    84    34    36 1   
    85    36    37 1   
    86    36   103 1   
    87    36   104 1   
    88    37    38 1   
    89    37   105 1   
    90    37   106 1   
    91    38    39 1   
    92    38   107 1   
    93    38   108 1   
    94    39    40 1   
    95    39   109 1   
    96    39   110 1   
    97    40    41 1   
    98    40   111 1   
    99    40   112 1   
   100    41    42 1   
   101    41   113 1   
   102    41   114 1   
   103    42    43 1   
   104    42   115 1   
   105    42   116 1   
   106    43    44 1   
   107    43   117 1   
   108    43   118 1   
   109    44    45 1   
   110    44   119 1   
   111    44   120 1   
   112    45    46 2   
   113    45   121 1   
   114    46    47 1   
   115    46   122 1   
   116    47    48 1   
   117    47   123 1   
   118    47   124 1   
   119    48    49 2   
   120    48   125 1   
   121    49    50 1   
   122    49   126 1   
   123    50    51 1   
   124    50   127 1   
   125    50   128 1   
   126    51    52 1   
   127    51   129 1   
   128    51   130 1   
   129    52    53 1   
   130    52   131 1   
   131    52   132 1   
   132    53    54 1   
   133    53   133 1   
   134    53   134 1   
   135    54   135 1   
   136    54   136 1   
   137    54   137 1   
@<TRIPOS>SUBSTRUCTURE
     1 DB6         1 TEMP              0 ****  ****    0 ROOT
