@<TRIPOS>MOLECULE
DB6
  137   137     1     0     0
SMALL
abcg2


@<TRIPOS>ATOM
      1 C1          -1.4090     3.5920     2.2530 c3         1 DB6       0.144600
      2 C2          -1.9930     2.1840     2.2880 c3         1 DB6       0.088700
      3 N2          -1.1800     1.3340     1.4450 ns         1 DB6      -0.504900
      4 C3          -3.4630     2.1260     1.8240 c3         1 DB6       0.127300
      5 O3          -4.1990     3.2400     2.2710 oh         1 DB6      -0.641000
      6 C4          -4.1910     0.8300     2.2410 c3         1 DB6       0.139300
      7 O4          -3.3810    -0.3200     2.1630 oh         1 DB6      -0.638000
      8 C5          -5.4840     0.6640     1.4470 c3         1 DB6      -0.108400
      9 C6          -6.3230    -0.5380     1.8640 c3         1 DB6      -0.071400
     10 C7          -7.5550    -0.7200     0.9860 c3         1 DB6      -0.075400
     11 C8          -8.3600    -1.9680     1.3250 c3         1 DB6      -0.074400
     12 C9          -9.5590    -2.1750     0.4080 c3         1 DB6      -0.074400
     13 C10        -10.3330    -3.4530     0.7050 c3         1 DB6      -0.074400
     14 C11        -11.5150    -3.6720    -0.2310 c3         1 DB6      -0.074400
     15 C12        -12.2710    -4.9660     0.0430 c3         1 DB6      -0.074400
     16 C13        -13.4430    -5.1920    -0.9030 c3         1 DB6      -0.074400
     17 C14        -14.1870    -6.4950    -0.6400 c3         1 DB6      -0.074400
     18 C15        -15.3540    -6.7260    -1.5930 c3         1 DB6      -0.074400
     19 C16        -16.0930    -8.0320    -1.3340 c3         1 DB6      -0.075400
     20 C17        -17.2540    -8.2680    -2.2930 c3         1 DB6      -0.075400
     21 C18        -17.9890    -9.5740    -2.0220 c3         1 DB6      -0.088100
     22 C1A         -0.7150     5.1660     0.6060 c6         1 DB6       0.359300
     23 O1A         -1.4440     4.0270     0.9100 os         1 DB6      -0.478000
     24 C2A         -1.0570     5.5640    -0.8320 c6         1 DB6       0.121300
     25 O2A         -2.4360     5.7400    -1.0310 oh         1 DB6      -0.706000
     26 C3A         -0.5720     4.4780    -1.7840 c6         1 DB6       0.141300
     27 O3A         -0.7440     4.8460    -3.1330 oh         1 DB6      -0.672000
     28 C4A          0.9170     4.2350    -1.5750 c6         1 DB6       0.143300
     29 O4A          1.3680     3.1190    -2.3040 oh         1 DB6      -0.720000
     30 O5A          2.9720     3.6810     1.4970 oh         1 DB6      -0.710000
     31 C5M          1.2290     3.9740    -0.1000 c6         1 DB6       0.172300
     32 C6A          2.7240     3.9750     0.1430 c3         1 DB6       0.168600
     33 O6A          0.6700     4.9810     0.7240 os         1 DB6      -0.462000
     34 CAA         -0.2130     0.5100     1.8860 c          1 DB6       0.605100
     35 OAA         -0.0090     0.2860     3.0720 o          1 DB6      -0.596100
     36 CAB          0.6450    -0.0990     0.7990 c3         1 DB6      -0.157400
     37 CAC          2.1260     0.1720     1.0560 c3         1 DB6      -0.073400
     38 CAD          2.9970    -0.1660    -0.1450 c3         1 DB6      -0.078400
     39 CAE          4.4670     0.1490     0.0950 c3         1 DB6      -0.071400
     40 CAF          5.3580    -0.1780    -1.0970 c3         1 DB6      -0.076400
     41 CAG          6.8260     0.1490    -0.8560 c3         1 DB6      -0.074400
     42 CAH          7.7210    -0.1940    -2.0410 c3         1 DB6      -0.075400
     43 CAI          9.1880     0.1310    -1.7940 c3         1 DB6      -0.072400
     44 CAJ         10.0870    -0.2260    -2.9790 c3         1 DB6      -0.040200
     45 CAK         11.5140     0.1510    -2.7410 c2         1 DB6      -0.219200
     46 CAL         12.5300    -0.7040    -2.6670 c2         1 DB6      -0.214200
     47 CAM         13.9530    -0.3240    -2.3740 c3         1 DB6      -0.006000
     48 CAN         14.3990    -0.8860    -1.0550 c2         1 DB6      -0.216200
     49 CAO         15.3550    -1.7960    -0.8980 c2         1 DB6      -0.217200
     50 CAP         15.7700    -2.3910     0.4100 c3         1 DB6      -0.041200
     51 CAQ         15.5380    -3.9020     0.4630 c3         1 DB6      -0.072400
     52 CAR         15.9980    -4.5250     1.7750 c3         1 DB6      -0.076400
     53 CAS         15.7680    -6.0300     1.8390 c3         1 DB6      -0.074400
     54 CAT         16.2310    -6.6410     3.1540 c3         1 DB6      -0.088100
     55 H1          -1.9670     4.2760     2.9020 h1         1 DB6       0.049200
     56 H1A         -0.3820     3.5410     2.6310 h1         1 DB6       0.049200
     57 H2          -1.9130     1.8200     3.3150 h1         1 DB6       0.096700
     58 HN2         -1.2390     1.4970     0.4530 hn         1 DB6       0.312500
     59 H3          -3.4730     2.1970     0.7290 h1         1 DB6       0.079700
     60 HO3         -4.3090     3.1750     3.2260 ho         1 DB6       0.438000
     61 H4          -4.4330     0.9250     3.3090 h1         1 DB6       0.067700
     62 HO4         -3.1320    -0.4590     1.2430 ho         1 DB6       0.438000
     63 H5          -6.0810     1.5750     1.5390 hc         1 DB6       0.047700
     64 H5A         -5.2290     0.5750     0.3830 hc         1 DB6       0.047700
     65 H6          -5.7150    -1.4450     1.8160 hc         1 DB6       0.045700
     66 H6A         -6.6310    -0.4290     2.9090 hc         1 DB6       0.045700
     67 H7          -8.1980     0.1640     1.0640 hc         1 DB6       0.036200
     68 H7A         -7.2410    -0.7710    -0.0630 hc         1 DB6       0.036200
     69 H8          -7.7060    -2.8450     1.2650 hc         1 DB6       0.038700
     70 H8A         -8.7010    -1.9150     2.3650 hc         1 DB6       0.038700
     71 H9         -10.2320    -1.3140     0.4860 hc         1 DB6       0.036700
     72 H9A         -9.2160    -2.1960    -0.6330 hc         1 DB6       0.036700
     73 H10         -9.6550    -4.3110     0.6360 hc         1 DB6       0.037700
     74 H10A       -10.6900    -3.4330     1.7410 hc         1 DB6       0.037700
     75 H11        -12.2040    -2.8230    -0.1510 hc         1 DB6       0.036700
     76 H11A       -11.1590    -3.6750    -1.2680 hc         1 DB6       0.036700
     77 H12        -11.5790    -5.8120    -0.0320 hc         1 DB6       0.037200
     78 H12A       -12.6340    -4.9640     1.0770 hc         1 DB6       0.037200
     79 H13        -14.1410    -4.3510    -0.8230 hc         1 DB6       0.036700
     80 H13A       -13.0790    -5.1850    -1.9370 hc         1 DB6       0.036700
     81 H14        -13.4870    -7.3340    -0.7170 hc         1 DB6       0.037200
     82 H14A       -14.5550    -6.5020     0.3920 hc         1 DB6       0.037200
     83 H15        -16.0560    -5.8880    -1.5150 hc         1 DB6       0.036700
     84 H15A       -14.9850    -6.7160    -2.6250 hc         1 DB6       0.036700
     85 H16        -15.3900    -8.8690    -1.4070 hc         1 DB6       0.036700
     86 H16A       -16.4670    -8.0400    -0.3040 hc         1 DB6       0.036700
     87 H17        -17.9550    -7.4310    -2.2240 hc         1 DB6       0.036700
     88 H17A       -16.8790    -8.2640    -3.3210 hc         1 DB6       0.036700
     89 H18        -18.4090    -9.5880    -1.0140 hc         1 DB6       0.031367
     90 H18A       -18.8100    -9.7270    -2.7240 hc         1 DB6       0.031367
     91 H18B       -17.3170   -10.4300    -2.1090 hc         1 DB6       0.031367
     92 H1AA        -0.9500     5.9830     1.3030 h2         1 DB6       0.070700
     93 H2A         -0.5060     6.4900    -1.0520 h1         1 DB6       0.056700
     94 HO2A        -2.6980     6.5850    -0.6540 ho         1 DB6       0.512000
     95 H3A         -1.1100     3.5450    -1.5650 h1         1 DB6       0.063700
     96 HO3A        -1.6880     4.8880    -3.3180 ho         1 DB6       0.466000
     97 H4A          1.4520     5.1490    -1.8820 h1         1 DB6       0.049700
     98 HO4A         1.1870     3.2780    -3.2360 ho         1 DB6       0.524000
     99 HO5A         3.9210     3.5790     1.6120 ho         1 DB6       0.504000
    100 H5M          0.8250     2.9880     0.1690 h1         1 DB6       0.065700
    101 H6AA         3.1310     4.9580    -0.1370 h1         1 DB6       0.034700
    102 H6AB         3.1800     3.2350    -0.5230 h1         1 DB6       0.034700
    103 HAB          0.4620    -1.1770     0.7640 hc         1 DB6       0.056200
    104 HABA         0.3640     0.2960    -0.1810 hc         1 DB6       0.056200
    105 HAC          2.2690     1.2260     1.3080 hc         1 DB6       0.057700
    106 HACA         2.4580    -0.3980     1.9280 hc         1 DB6       0.057700
    107 HAD          2.8840    -1.2250    -0.4020 hc         1 DB6       0.039700
    108 HADA         2.6430     0.3990    -1.0150 hc         1 DB6       0.039700
    109 HAE          4.5680     1.2120     0.3450 hc         1 DB6       0.035200
    110 HAEA         4.8200    -0.4000     0.9740 hc         1 DB6       0.035200
    111 HAF          5.2580    -1.2410    -1.3420 hc         1 DB6       0.038200
    112 HAFA         5.0020     0.3700    -1.9770 hc         1 DB6       0.038200
    113 HAG          6.9260     1.2140    -0.6220 hc         1 DB6       0.036700
    114 HAGA         7.1770    -0.3900     0.0310 hc         1 DB6       0.036700
    115 HAH          7.6190    -1.2600    -2.2760 hc         1 DB6       0.037700
    116 HAHA         7.3720     0.3450    -2.9280 hc         1 DB6       0.037700
    117 HAI          9.2910     1.1980    -1.5680 hc         1 DB6       0.039700
    118 HAIA         9.5390    -0.4020    -0.9050 hc         1 DB6       0.039700
    119 HAJ         10.0120    -1.2970    -3.1880 hc         1 DB6       0.043200
    120 HAJA         9.7140     0.2920    -3.8700 hc         1 DB6       0.043200
    121 HAK         11.7100     1.2120    -2.5970 ha         1 DB6       0.165000
    122 HAL         12.3400    -1.7680    -2.7960 ha         1 DB6       0.169000
    123 HAM         14.6110    -0.6940    -3.1670 hc         1 DB6       0.048700
    124 HAMA        14.0430     0.7660    -2.3660 hc         1 DB6       0.048700
    125 HAN         13.8660    -0.5200    -0.1800 ha         1 DB6       0.168000
    126 HAO         15.8770    -2.1660    -1.7790 ha         1 DB6       0.165000
    127 HAP         16.8350    -2.1950     0.5820 hc         1 DB6       0.043700
    128 HAPA        15.2290    -1.9070     1.2290 hc         1 DB6       0.043700
    129 HAQ         14.4740    -4.1070     0.3110 hc         1 DB6       0.039700
    130 HAQA        16.0630    -4.3800    -0.3710 hc         1 DB6       0.039700
    131 HAR         17.0630    -4.3150     1.9240 hc         1 DB6       0.037200
    132 HARA        15.4750    -4.0430     2.6090 hc         1 DB6       0.037200
    133 HAS         14.7040    -6.2390     1.6900 hc         1 DB6       0.037200
    134 HASA        16.2900    -6.5110     1.0060 hc         1 DB6       0.037200
    135 HAT         16.0500    -7.7160     3.1850 hc         1 DB6       0.031367
    136 HATA        17.3000    -6.4820     3.3070 hc         1 DB6       0.031367
    137 HATB        15.7080    -6.1930     4.0020 hc         1 DB6       0.031367
@<TRIPOS>BOND
     1     1     2 1   
     2     1    23 1   
     3     1    55 1   
     4     1    56 1   
     5     2     3 1   
     6     2     4 1   
     7     2    57 1   
     8     3    34 1   
     9     3    58 1   
    10     4     5 1   
    11     4     6 1   
    12     4    59 1   
    13     5    60 1   
    14     6     7 1   
    15     6     8 1   
    16     6    61 1   
    17     7    62 1   
    18     8     9 1   
    19     8    63 1   
    20     8    64 1   
    21     9    10 1   
    22     9    65 1   
    23     9    66 1   
    24    10    11 1   
    25    10    67 1   
    26    10    68 1   
    27    11    12 1   
    28    11    69 1   
    29    11    70 1   
    30    12    13 1   
    31    12    71 1   
    32    12    72 1   
    33    13    14 1   
    34    13    73 1   
    35    13    74 1   
    36    14    15 1   
    37    14    75 1   
    38    14    76 1   
    39    15    16 1   
    40    15    77 1   
    41    15    78 1   
    42    16    17 1   
    43    16    79 1   
    44    16    80 1   
    45    17    18 1   
    46    17    81 1   
    47    17    82 1   
    48    18    19 1   
    49    18    83 1   
    50    18    84 1   
    51    19    20 1   
    52    19    85 1   
    53    19    86 1   
    54    20    21 1   
    55    20    87 1   
    56    20    88 1   
    57    21    89 1   
    58    21    90 1   
    59    21    91 1   
    60    22    23 1   
    61    22    24 1   
    62    22    33 1   
    63    22    92 1   
    64    24    25 1   
    65    24    26 1   
    66    24    93 1   
    67    25    94 1   
    68    26    27 1   
    69    26    28 1   
    70    26    95 1   
    71    27    96 1   
    72    28    29 1   
    73    28    31 1   
    74    28    97 1   
    75    29    98 1   
    76    30    32 1   
    77    30    99 1   
    78    31    32 1   
    79    31    33 1   
    80    31   100 1   
    81    32   101 1   
    82    32   102 1   
    83    34    35 2   
    84    34    36 1   
    85    36    37 1   
    86    36   103 1   
    87    36   104 1   
    88    37    38 1   
    89    37   105 1   
    90    37   106 1   
    91    38    39 1   
    92    38   107 1   
    93    38   108 1   
    94    39    40 1   
    95    39   109 1   
    96    39   110 1   
    97    40    41 1   
    98    40   111 1   
    99    40   112 1   
   100    41    42 1   
   101    41   113 1   
   102    41   114 1   
   103    42    43 1   
   104    42   115 1   
   105    42   116 1   
   106    43    44 1   
   107    43   117 1   
   108    43   118 1   
   109    44    45 1   
   110    44   119 1   
   111    44   120 1   
   112    45    46 2   
   113    45   121 1   
   114    46    47 1   
   115    46   122 1   
   116    47    48 1   
   117    47   123 1   
   118    47   124 1   
   119    48    49 2   
   120    48   125 1   
   121    49    50 1   
   122    49   126 1   
   123    50    51 1   
   124    50   127 1   
   125    50   128 1   
   126    51    52 1   
   127    51   129 1   
   128    51   130 1   
   129    52    53 1   
   130    52   131 1   
   131    52   132 1   
   132    53    54 1   
   133    53   133 1   
   134    53   134 1   
   135    54   135 1   
   136    54   136 1   
   137    54   137 1   
@<TRIPOS>SUBSTRUCTURE
     1 DB6         1 TEMP              0 ****  ****    0 ROOT
