@<TRIPOS>MOLECULE
DB7
   42    42     1     0     0
SMALL
No Charge or Current Charge


@<TRIPOS>ATOM
      1 C1          -0.3800     2.0830     0.6490 ca         1 DB7      -0.084600
      2 C2           0.9600     2.5530     0.7450 ca         1 DB7      -0.084600
      3 C3           1.2290     3.9240     0.5420 ca         1 DB7      -0.075000
      4 C4           0.1960     4.8180     0.2180 ca         1 DB7      -0.099000
      5 C5          -1.1210     4.3510     0.0960 ca         1 DB7      -0.099000
      6 C6          -1.4070     2.9940     0.3120 ca         1 DB7      -0.075000
      7 C7          -0.7430     0.6470     0.9490 c          1 DB7       0.614700
      8 C8           2.1180     1.6280     1.0250 c          1 DB7       0.614700
      9 C13          3.1390    -0.4780     0.4440 c3         1 DB7       0.168100
     10 C14          2.8100    -1.6860    -0.4520 c3         1 DB7      -0.084400
     11 C15          3.8690    -2.8080    -0.3670 c3         1 DB7      -0.075400
     12 C16          3.5390    -4.0180    -1.2620 c3         1 DB7      -0.088600
     13 O9           2.0770     0.4750     0.2810 os         1 DB7      -0.439600
     14 O11          3.0600     1.9400     1.7430 o          1 DB7      -0.478500
     15 O12         -0.3080     0.0400     1.9200 o          1 DB7      -0.478500
     16 O10         -1.7370     0.1640     0.1360 os         1 DB7      -0.439600
     17 C17         -2.1990    -1.1780     0.3600 c3         1 DB7       0.168100
     18 C18         -3.2840    -1.4760    -0.6930 c3         1 DB7      -0.084400
     19 C19         -3.8690    -2.9000    -0.5700 c3         1 DB7      -0.075400
     20 C20         -4.9530    -3.2000    -1.6230 c3         1 DB7      -0.088600
     21 H1           2.2490     4.2960     0.6160 ha         1 DB7       0.132000
     22 H2           0.4170     5.8710     0.0560 ha         1 DB7       0.120500
     23 H3          -1.9220     5.0420    -0.1570 ha         1 DB7       0.120500
     24 H4          -2.4380     2.6520     0.2360 ha         1 DB7       0.132000
     25 H5           3.2110    -0.8060     1.4900 h1         1 DB7       0.050700
     26 H6           4.1040    -0.0450     0.1460 h1         1 DB7       0.050700
     27 H7           1.8320    -2.0900    -0.1620 hc         1 DB7       0.052950
     28 H8           2.7250    -1.3470    -1.4920 hc         1 DB7       0.052950
     29 H9           4.8480    -2.4060    -0.6570 hc         1 DB7       0.040450
     30 H10          3.9570    -3.1470     0.6730 hc         1 DB7       0.040450
     31 H11          4.3160    -4.7860    -1.1680 hc         1 DB7       0.034033
     32 H12          2.5790    -4.4640    -0.9730 hc         1 DB7       0.034033
     33 H13          3.4780    -3.7180    -2.3150 hc         1 DB7       0.034033
     34 H14         -1.3760    -1.8970     0.2540 h1         1 DB7       0.050700
     35 H15         -2.6260    -1.2810     1.3670 h1         1 DB7       0.050700
     36 H16         -4.0920    -0.7410    -0.5900 hc         1 DB7       0.052950
     37 H17         -2.8540    -1.3460    -1.6940 hc         1 DB7       0.052950
     38 H18         -3.0610    -3.6350    -0.6700 hc         1 DB7       0.040450
     39 H19         -4.2980    -3.0310     0.4320 hc         1 DB7       0.040450
     40 H20         -5.7930    -2.5020    -1.5250 hc         1 DB7       0.034033
     41 H21         -4.5450    -3.1110    -2.6370 hc         1 DB7       0.034033
     42 H22         -5.3370    -4.2190    -1.4960 hc         1 DB7       0.034033
@<TRIPOS>BOND
     1     1     2 ar  
     2     1     6 ar  
     3     1     7 1   
     4     2     3 ar  
     5     2     8 1   
     6     3     4 ar  
     7     3    21 1   
     8     4     5 ar  
     9     4    22 1   
    10     5     6 ar  
    11     5    23 1   
    12     6    24 1   
    13     7    15 2   
    14     7    16 1   
    15     8    13 1   
    16     8    14 2   
    17     9    10 1   
    18     9    13 1   
    19     9    25 1   
    20     9    26 1   
    21    10    11 1   
    22    10    27 1   
    23    10    28 1   
    24    11    12 1   
    25    11    29 1   
    26    11    30 1   
    27    12    31 1   
    28    12    32 1   
    29    12    33 1   
    30    16    17 1   
    31    17    18 1   
    32    17    34 1   
    33    17    35 1   
    34    18    19 1   
    35    18    36 1   
    36    18    37 1   
    37    19    20 1   
    38    19    38 1   
    39    19    39 1   
    40    20    40 1   
    41    20    41 1   
    42    20    42 1   
@<TRIPOS>SUBSTRUCTURE
     1 DB7         1 TEMP              0 ****  ****    0 ROOT
