@<TRIPOS>MOLECULE
DB7
   42    42     1     0     0
SMALL
abcg2


@<TRIPOS>ATOM
      1 C1          -0.3900     1.9700     0.4840 ca         1 DB7      -0.084600
      2 C2           0.9110     2.4160     0.7360 ca         1 DB7      -0.084600
      3 C3           1.2210     3.7610     0.5910 ca         1 DB7      -0.075000
      4 C4           0.2510     4.6620     0.1720 ca         1 DB7      -0.099000
      5 C5          -1.0360     4.2200    -0.0940 ca         1 DB7      -0.099000
      6 C6          -1.3560     2.8790     0.0630 ca         1 DB7      -0.075000
      7 C7          -0.7640     0.5660     0.8030 c          1 DB7       0.614700
      8 C8           2.0120     1.4860     1.1210 c          1 DB7       0.614700
      9 C13          3.0880    -0.5330     0.5350 c3         1 DB7       0.168100
     10 C14          2.9730    -1.5860    -0.5450 c3         1 DB7      -0.084400
     11 C15          3.9570    -2.7270    -0.3080 c3         1 DB7      -0.075400
     12 C16          3.8790    -3.7980    -1.3860 c3         1 DB7      -0.088600
     13 O9           2.1330     0.5000     0.2530 os         1 DB7      -0.439600
     14 O11          2.7330     1.6640     2.0700 o          1 DB7      -0.478500
     15 O12         -0.2500    -0.0660     1.6940 o          1 DB7      -0.478500
     16 O10         -1.7350     0.1160     0.0330 os         1 DB7      -0.439600
     17 C17         -2.2600    -1.1950     0.3010 c3         1 DB7       0.168100
     18 C18         -3.4000    -1.4460    -0.6610 c3         1 DB7      -0.084400
     19 C19         -4.0270    -2.8160    -0.4290 c3         1 DB7      -0.075400
     20 C20         -5.1800    -3.0900    -1.3850 c3         1 DB7      -0.088600
     21 H1           2.2280     4.1070     0.7860 ha         1 DB7       0.132000
     22 H2           0.5030     5.7070     0.0560 ha         1 DB7       0.120500
     23 H3          -1.7970     4.9180    -0.4140 ha         1 DB7       0.120500
     24 H4          -2.3690     2.5490    -0.1200 ha         1 DB7       0.132000
     25 H5           2.8810    -0.9600     1.5190 h1         1 DB7       0.050700
     26 H6           4.0950    -0.1070     0.5580 h1         1 DB7       0.050700
     27 H7           1.9530    -1.9800    -0.5670 hc         1 DB7       0.052950
     28 H8           3.1640    -1.1350    -1.5230 hc         1 DB7       0.052950
     29 H9           4.9740    -2.3260    -0.2640 hc         1 DB7       0.040450
     30 H10          3.7640    -3.1760     0.6700 hc         1 DB7       0.040450
     31 H11          4.5850    -4.6060    -1.1920 hc         1 DB7       0.034033
     32 H12          2.8800    -4.2370    -1.4360 hc         1 DB7       0.034033
     33 H13          4.1080    -3.3870    -2.3700 hc         1 DB7       0.034033
     34 H14         -1.4700    -1.9380     0.1720 h1         1 DB7       0.050700
     35 H15         -2.6060    -1.2470     1.3360 h1         1 DB7       0.050700
     36 H16         -4.1610    -0.6690    -0.5400 hc         1 DB7       0.052950
     37 H17         -3.0370    -1.3800    -1.6910 hc         1 DB7       0.052950
     38 H18         -3.2650    -3.5920    -0.5420 hc         1 DB7       0.040450
     39 H19         -4.3820    -2.8840     0.6030 hc         1 DB7       0.040450
     40 H20         -5.9700    -2.3450    -1.2720 hc         1 DB7       0.034033
     41 H21         -4.8450    -3.0620    -2.4230 hc         1 DB7       0.034033
     42 H22         -5.6210    -4.0700    -1.2050 hc         1 DB7       0.034033
@<TRIPOS>BOND
     1     1     2 ar  
     2     1     6 ar  
     3     1     7 1   
     4     2     3 ar  
     5     2     8 1   
     6     3     4 ar  
     7     3    21 1   
     8     4     5 ar  
     9     4    22 1   
    10     5     6 ar  
    11     5    23 1   
    12     6    24 1   
    13     7    15 2   
    14     7    16 1   
    15     8    13 1   
    16     8    14 2   
    17     9    10 1   
    18     9    13 1   
    19     9    25 1   
    20     9    26 1   
    21    10    11 1   
    22    10    27 1   
    23    10    28 1   
    24    11    12 1   
    25    11    29 1   
    26    11    30 1   
    27    12    31 1   
    28    12    32 1   
    29    12    33 1   
    30    16    17 1   
    31    17    18 1   
    32    17    34 1   
    33    17    35 1   
    34    18    19 1   
    35    18    36 1   
    36    18    37 1   
    37    19    20 1   
    38    19    38 1   
    39    19    39 1   
    40    20    40 1   
    41    20    41 1   
    42    20    42 1   
@<TRIPOS>SUBSTRUCTURE
     1 DB7         1 TEMP              0 ****  ****    0 ROOT
