@<TRIPOS>MOLECULE
DB8
   65    68     1     0     0
SMALL
bcc


@<TRIPOS>ATOM
      1 CAA          0.7270     3.6290     0.2490 c3         1 DB8       0.120700
      2 CAC          6.6640    -0.8730     0.1490 c3         1 DB8       0.171800
      3 NAD         -4.9580    -2.8330    -0.7030 n1         1 DB8      -0.376800
      4 CL1         -8.9510     0.2000     0.5280 cl         1 DB8      -0.074400
      5 CL2         -3.9890    -0.5650     2.4250 cl         1 DB8      -0.078400
      6 CAH         -1.5760    -2.8970    -0.3180 ca         1 DB8       0.482200
      7 CAI         -6.4010    -0.1440     1.3140 ca         1 DB8      -0.062000
      8 CAJ         -5.3600     0.8020    -1.0730 ca         1 DB8      -0.232000
      9 CAK          1.4620    -1.0810    -0.1180 ca         1 DB8      -0.269300
     10 CAL         -0.3360     1.0450    -0.0170 ca         1 DB8      -0.189000
     11 CAM          5.5670     0.1840     0.1270 c3         1 DB8      -0.082400
     12 CAN          4.2060    -0.4730     0.0320 c3         1 DB8       0.134400
     13 CAO         12.1040     0.4820    -0.2800 c3         1 DB8       0.154100
     14 CAP          8.4390     0.2950    -0.9980 c6         1 DB8       0.164300
     15 CAQ          8.9620    -1.2980     0.6810 c6         1 DB8       0.164300
     16 CAR          9.8130     0.9170    -0.8350 c6         1 DB8       0.164300
     17 CAS         10.3340    -0.6720     0.8490 c6         1 DB8       0.164300
     18 NAT         -0.3040    -2.6490    -0.2550 nb         1 DB8      -0.691000
     19 OAV          1.5730     2.4970     0.1740 os         1 DB8      -0.291900
     20 CAX         -6.7370     0.7660    -0.9050 ca         1 DB8       0.174100
     21 CAY         -7.2430     0.2730     0.3040 ca         1 DB8      -0.009600
     22 CAZ         -5.0280    -0.0770     1.1380 ca         1 DB8      -0.016600
     23 CBA         -2.5870    -1.9090    -0.3360 ca         1 DB8      -0.237300
     24 CBB         -4.4990     0.3770    -0.0650 ca         1 DB8       0.178600
     25 CBC          1.0090     1.2910     0.0440 ca         1 DB8       0.121100
     26 CBD          1.9330     0.2000    -0.0160 ca         1 DB8       0.160100
     27 CBE         -2.2280    -0.5620    -0.2510 ca         1 DB8       0.289600
     28 CBF          0.0780    -1.3480    -0.1830 ca         1 DB8       0.454600
     29 CBG         -0.8340    -0.2730    -0.1560 ca         1 DB8      -0.191300
     30 NBH          7.9950    -0.3060     0.2460 n3         1 DB8      -0.718600
     31 NBI         10.7750    -0.0720    -0.3920 n3         1 DB8      -0.718600
     32 C01         -7.1520     1.6470    -3.0620 c3         1 DB8       0.122700
     33 HAA          1.3780     4.4940     0.3360 h1         1 DB8       0.042367
     34 HAAA         0.1150     3.7360    -0.6500 h1         1 DB8       0.042367
     35 HAAB         0.0730     3.5880     1.1230 h1         1 DB8       0.042367
     36 HAC          6.5100    -1.5130     1.0230 h1         1 DB8       0.030700
     37 HACA         6.5690    -1.5310    -0.7320 h1         1 DB8       0.030700
     38 HAH         -1.8770    -3.9380    -0.3780 h4         1 DB8       0.027100
     39 HAI         -6.8130    -0.5110     2.2440 ha         1 DB8       0.167000
     40 HAJ         -4.9210     1.1480    -1.9990 ha         1 DB8       0.145000
     41 HAK          2.1290    -1.9320    -0.1480 ha         1 DB8       0.161000
     42 HAL         -1.0240     1.8740     0.0660 ha         1 DB8       0.132000
     43 HAM          5.6300     0.7850     1.0370 hc         1 DB8       0.064700
     44 HAMA         5.6930     0.8600    -0.7220 hc         1 DB8       0.064700
     45 HAN          4.1280    -1.0570    -0.8920 h1         1 DB8       0.038700
     46 HANA         4.0480    -1.1600     0.8720 h1         1 DB8       0.038700
     47 HAO         12.8090    -0.2970     0.0150 h1         1 DB8       0.030700
     48 HAOA        12.4270     0.8790    -1.2440 h1         1 DB8       0.030700
     49 HAOB        12.1760     1.2960     0.4590 h1         1 DB8       0.030700
     50 HAP          7.7420     1.0770    -1.3070 h1         1 DB8       0.038200
     51 HAPA         8.4730    -0.4490    -1.8140 h1         1 DB8       0.038200
     52 HAQ          9.0320    -2.1390    -0.0310 h1         1 DB8       0.038200
     53 HAQA         8.6400    -1.7130     1.6390 h1         1 DB8       0.038200
     54 HAR         10.1360     1.3250    -1.7960 h1         1 DB8       0.038200
     55 HARA         9.7470     1.7640    -0.1290 h1         1 DB8       0.038200
     56 HAS         10.2950     0.0670     1.6690 h1         1 DB8       0.038200
     57 HASA        11.0450    -1.4460     1.1480 h1         1 DB8       0.038200
     58 HNAU        -2.7840     1.3560    -0.6010 hn         1 DB8       0.448800
     59 H01         -8.0340     1.8890    -3.6490 h1         1 DB8       0.047033
     60 H01A        -6.5530     2.5510    -2.9330 h1         1 DB8       0.047033
     61 H01B        -6.5640     0.8980    -3.5960 h1         1 DB8       0.047033
     62 CAG         -3.9160    -2.3700    -0.5260 cg         1 DB8       0.249800
     63 NAU         -3.1160     0.4640    -0.2700 nu         1 DB8      -0.654000
     64 OAW          3.2190     0.5500     0.0490 os         1 DB8      -0.298900
     65 O02         -7.6260     1.1530    -1.8200 os         1 DB8      -0.293900
@<TRIPOS>BOND
     1     1    19 1   
     2     1    33 1   
     3     1    34 1   
     4     1    35 1   
     5     2    11 1   
     6     2    30 1   
     7     2    36 1   
     8     2    37 1   
     9     3    62 3   
    10     4    21 1   
    11     5    22 1   
    12     6    18 ar  
    13     6    23 ar  
    14     6    38 1   
    15     7    21 ar  
    16     7    22 ar  
    17     7    39 1   
    18     8    20 ar  
    19     8    24 ar  
    20     8    40 1   
    21     9    26 ar  
    22     9    28 ar  
    23     9    41 1   
    24    10    25 ar  
    25    10    29 ar  
    26    10    42 1   
    27    11    12 1   
    28    11    43 1   
    29    11    44 1   
    30    12    45 1   
    31    12    46 1   
    32    12    64 1   
    33    13    31 1   
    34    13    47 1   
    35    13    48 1   
    36    13    49 1   
    37    14    16 1   
    38    14    30 1   
    39    14    50 1   
    40    14    51 1   
    41    15    17 1   
    42    15    30 1   
    43    15    52 1   
    44    15    53 1   
    45    16    31 1   
    46    16    54 1   
    47    16    55 1   
    48    17    31 1   
    49    17    56 1   
    50    17    57 1   
    51    18    28 ar  
    52    19    25 1   
    53    20    21 ar  
    54    20    65 1   
    55    22    24 ar  
    56    23    27 ar  
    57    23    62 1   
    58    24    63 1   
    59    25    26 ar  
    60    26    64 1   
    61    27    29 ar  
    62    27    63 1   
    63    28    29 ar  
    64    32    59 1   
    65    32    60 1   
    66    32    61 1   
    67    32    65 1   
    68    58    63 1   
@<TRIPOS>SUBSTRUCTURE
     1 DB8         1 TEMP              0 ****  ****    0 ROOT
