@<TRIPOS>MOLECULE
DB8
   65    68     1     0     0
SMALL
No Charge or Current Charge


@<TRIPOS>ATOM
      1 CAA          0.5040     3.4410    -0.6280 c3         1 DB8       0.143900
      2 CAC          6.7500    -0.9710     0.1660 c3         1 DB8       0.171800
      3 NAD         -5.0990    -3.1840    -0.7580 n1         1 DB8      -0.466000
      4 Cl1         -8.6470     1.2150     1.5510 cl         1 DB8      -0.166000
      5 Cl2         -3.6440    -0.7840     2.2820 cl         1 DB8      -0.170000
      6 CAH         -1.6520    -3.2960    -0.3640 ca         1 DB8       0.416900
      7 CAI         -6.0950     0.2390     1.6860 ca         1 DB8      -0.044000
      8 CAJ         -5.4560     0.9260    -0.9640 ca         1 DB8      -0.214000
      9 CAK          1.3890    -1.3820    -0.2430 ca         1 DB8      -0.186000
     10 CAL         -0.4690     0.7000    -0.5400 ca         1 DB8      -0.171000
     11 CAM          5.5640     0.0040     0.0090 c3         1 DB8      -0.082400
     12 CAN          4.2110    -0.7250    -0.0540 c3         1 DB8       0.157600
     13 CAO         12.2850     0.8400     0.1130 c3         1 DB8       0.154100
     14 CAP          8.5270     0.5290    -0.7610 c6         1 DB8       0.164300
     15 CAQ          9.1290    -1.3060     0.7450 c6         1 DB8       0.164300
     16 CAR          9.9100     1.2040    -0.4870 c6         1 DB8       0.164300
     17 CAS         10.5100    -0.6270     1.0210 c6         1 DB8       0.164300
     18 NAT         -0.3430    -2.9850    -0.2720 nb         1 DB8      -0.691000
     19 OAV          1.3760     2.3050    -0.4870 os         1 DB8      -0.315100
     20 CAX         -6.7410     1.2170    -0.4530 ca         1 DB8       0.174100
     21 CAY         -7.0540     0.8650     0.8760 ca         1 DB8       0.082000
     22 CAZ         -4.8190    -0.0530     1.1780 ca         1 DB8       0.075000
     23 CBA         -2.6540    -2.3410    -0.5220 ca         1 DB8      -0.172000
     24 CBB         -4.4990     0.2810    -0.1660 ca         1 DB8       0.317000
     25 CBC          0.9070     1.0010    -0.4440 ca         1 DB8       0.121100
     26 CBD          1.8410    -0.0480    -0.2970 ca         1 DB8       0.160100
     27 CBE         -2.2900    -0.9850    -0.5770 ca         1 DB8       0.428000
     28 CBF          0.0240    -1.6910    -0.3360 ca         1 DB8       0.324000
     29 CBG         -0.9170    -0.6460    -0.4920 ca         1 DB8      -0.126000
     30 NBH          8.0640    -0.3180     0.3870 n3         1 DB8      -0.718600
     31 NBI         10.9680     0.2120    -0.1270 n3         1 DB8      -0.718600
     32 C01         -7.4850     2.2330    -2.5840 c3         1 DB8       0.145900
     33 HAA          1.0890     4.3690    -0.6370 h1         1 DB8       0.042367
     34 HAAA        -0.0600     3.3850    -1.5670 h1         1 DB8       0.042367
     35 HAAB        -0.2040     3.4950     0.2090 h1         1 DB8       0.042367
     36 HAC          6.5300    -1.6230     1.0230 h1         1 DB8       0.030700
     37 HACA         6.7970    -1.6160    -0.7220 h1         1 DB8       0.030700
     38 HAH         -1.8930    -4.3580    -0.3190 h4         1 DB8       0.027100
     39 HAI         -6.3390    -0.0140     2.7140 ha         1 DB8       0.149000
     40 HAJ         -5.1940     1.1800    -1.9850 ha         1 DB8       0.127000
     41 HAK          2.0870    -2.2040    -0.1260 ha         1 DB8       0.143000
     42 HAL         -1.1900     1.5050    -0.6390 ha         1 DB8       0.114000
     43 HAM          5.5570     0.7010     0.8550 hc         1 DB8       0.064700
     44 HAMA         5.6850     0.5960    -0.9050 hc         1 DB8       0.064700
     45 HAN          4.2070    -1.4170    -0.9060 h1         1 DB8       0.038700
     46 HANA         4.0600    -1.2990     0.8690 h1         1 DB8       0.038700
     47 HAO         13.0450     0.0770     0.3240 h1         1 DB8       0.030700
     48 HAOA        12.6100     1.4060    -0.7700 h1         1 DB8       0.030700
     49 HAOB        12.2410     1.5290     0.9670 h1         1 DB8       0.030700
     50 HAP          7.8010     1.3260    -0.9740 h1         1 DB8       0.038200
     51 HAPA         8.6100    -0.0830    -1.6710 h1         1 DB8       0.038200
     52 HAQ          9.2570    -2.0350    -0.0700 h1         1 DB8       0.038200
     53 HAQA         8.8360    -1.8740     1.6390 h1         1 DB8       0.038200
     54 HAR         10.2080     1.7690    -1.3820 h1         1 DB8       0.038200
     55 HARA         9.7860     1.9340     0.3260 h1         1 DB8       0.038200
     56 HAS         10.4200    -0.0110     1.9280 h1         1 DB8       0.038200
     57 HASA        11.2490    -1.4120     1.2380 h1         1 DB8       0.038200
     58 HNAU        -2.9740     0.7180    -1.4460 hn         1 DB8       0.504000
     59 H01         -8.3840     2.7070    -2.9960 h1         1 DB8       0.047033
     60 H01A        -6.6600     2.9540    -2.6520 h1         1 DB8       0.047033
     61 H01B        -7.2450     1.3610    -3.2070 h1         1 DB8       0.047033
     62 CAG         -4.0030    -2.7970    -0.6550 cg         1 DB8       0.339000
     63 NAU         -3.2530     0.0220    -0.7560 nu         1 DB8      -0.986000
     64 OAW          3.1860     0.2720    -0.2060 os         1 DB8      -0.322100
     65 O02         -7.7110     1.8400    -1.2190 os         1 DB8      -0.317100
@<TRIPOS>BOND
     1     1    19 1   
     2     1    33 1   
     3     1    34 1   
     4     1    35 1   
     5     2    11 1   
     6     2    30 1   
     7     2    36 1   
     8     2    37 1   
     9     3    62 3   
    10     4    21 1   
    11     5    22 1   
    12     6    18 ar  
    13     6    23 ar  
    14     6    38 1   
    15     7    21 ar  
    16     7    22 ar  
    17     7    39 1   
    18     8    20 ar  
    19     8    24 ar  
    20     8    40 1   
    21     9    26 ar  
    22     9    28 ar  
    23     9    41 1   
    24    10    25 ar  
    25    10    29 ar  
    26    10    42 1   
    27    11    12 1   
    28    11    43 1   
    29    11    44 1   
    30    12    45 1   
    31    12    46 1   
    32    12    64 1   
    33    13    31 1   
    34    13    47 1   
    35    13    48 1   
    36    13    49 1   
    37    14    16 1   
    38    14    30 1   
    39    14    50 1   
    40    14    51 1   
    41    15    17 1   
    42    15    30 1   
    43    15    52 1   
    44    15    53 1   
    45    16    31 1   
    46    16    54 1   
    47    16    55 1   
    48    17    31 1   
    49    17    56 1   
    50    17    57 1   
    51    18    28 ar  
    52    19    25 1   
    53    20    21 ar  
    54    20    65 1   
    55    22    24 ar  
    56    23    27 ar  
    57    23    62 1   
    58    24    63 1   
    59    25    26 ar  
    60    26    64 1   
    61    27    29 ar  
    62    27    63 1   
    63    28    29 ar  
    64    32    59 1   
    65    32    60 1   
    66    32    61 1   
    67    32    65 1   
    68    58    63 1   
@<TRIPOS>SUBSTRUCTURE
     1 DB8         1 TEMP              0 ****  ****    0 ROOT
