@<TRIPOS>MOLECULE
DB9
   45    48     1     0     0
SMALL
No Charge or Current Charge


@<TRIPOS>ATOM
      1 C1           2.0040     1.8510    10.7070 ca         1 DB9      -0.086500
      2 C2           2.8980     1.6650    11.7860 ca         1 DB9      -0.192900
      3 C3           3.6260     0.4550    11.8490 ca         1 DB9      -0.086500
      4 C4           3.4880    -0.5210    10.8480 ca         1 DB9      -0.104000
      5 C5           2.6120    -0.3330     9.7520 cp         1 DB9      -0.022000
      6 C6           1.8710     0.8730     9.7060 ca         1 DB9      -0.104000
      7 C7           2.4670    -1.3750     8.6860 cp         1 DB9      -0.040000
      8 C8           2.5250    -2.7540     9.0020 ca         1 DB9      -0.082000
      9 C9           2.3880    -3.7290     8.0020 ca         1 DB9      -0.114000
     10 C10          2.1920    -3.3480     6.6660 ca         1 DB9      -0.057000
     11 C11          2.1290    -1.9830     6.3100 ca         1 DB9      -0.116900
     12 C12          2.2680    -1.0110     7.3300 ca         1 DB9      -0.091000
     13 C13          3.0120     2.6870    12.8730 ce         1 DB9       0.660800
     14 N14          4.1930     2.8040    13.5060 nv         1 DB9      -1.031200
     15 N15          2.1100     3.5410    13.1280 n2         1 DB9      -0.841100
     16 C16          1.9260    -1.5920     4.9050 cc         1 DB9       0.476400
     17 N17          1.8510    -0.2730     4.4600 na         1 DB9      -0.306600
     18 C18          1.6600    -0.3130     3.1130 ca         1 DB9      -0.085200
     19 C19          1.6240    -1.6290     2.7640 ca         1 DB9       0.084400
     20 N20          1.7900    -2.4530     3.8730 nd         1 DB9      -0.573100
     21 C21          1.4440    -2.0030     1.4270 ca         1 DB9      -0.053000
     22 C22          1.2970    -0.9860     0.4580 ca         1 DB9      -0.111000
     23 C23          1.3170     0.3930     0.8250 ca         1 DB9      -0.178900
     24 C24          1.5210     0.7300     2.1900 ca         1 DB9      -0.095000
     25 C25          1.2010     1.4640    -0.2150 ce         1 DB9       0.661800
     26 N26          0.4770     1.2000    -1.3170 nv         1 DB9      -1.031200
     27 N27          1.6250     2.6480    -0.0510 n2         1 DB9      -0.846100
     28 H1           1.4140     2.7620    10.6250 ha         1 DB9       0.123500
     29 H3           4.3000     0.2580    12.6820 ha         1 DB9       0.123500
     30 H4           4.0770    -1.4320    10.9210 ha         1 DB9       0.117000
     31 H6           1.1720     1.0480     8.8920 ha         1 DB9       0.117000
     32 H8           2.6640    -3.0720    10.0320 ha         1 DB9       0.120000
     33 H9           2.4320    -4.7840     8.2640 ha         1 DB9       0.122000
     34 H10          2.0880    -4.1210     5.9070 ha         1 DB9       0.142000
     35 H12          2.2370     0.0440     7.0760 ha         1 DB9       0.108000
     36 H141         4.3150     3.6950    13.9710 hn         1 DB9       0.469500
     37 H142         4.9960     2.4570    12.9970 hn         1 DB9       0.469500
     38 HN15         1.2700     3.2740    12.5990 hn         1 DB9       0.388400
     39 HN17         1.9240     0.5510     5.0390 hn         1 DB9       0.359000
     40 H21          1.4250    -3.0520     1.1440 ha         1 DB9       0.133000
     41 H22          1.1790    -1.2760    -0.5840 ha         1 DB9       0.126000
     42 H24          1.5540     1.7640     2.5260 ha         1 DB9       0.123000
     43 H261         0.1640     2.0310    -1.8030 hn         1 DB9       0.469500
     44 H262        -0.2060     0.4590    -1.2230 hn         1 DB9       0.469500
     45 HN27         2.1870     2.6610     0.8100 hn         1 DB9       0.386400
@<TRIPOS>BOND
     1     1     2 ar  
     2     1     6 ar  
     3     1    28 1   
     4     2     3 ar  
     5     2    13 1   
     6     3     4 ar  
     7     3    29 1   
     8     4     5 ar  
     9     4    30 1   
    10     5     6 ar  
    11     5     7 1   
    12     6    31 1   
    13     7     8 ar  
    14     7    12 ar  
    15     8     9 ar  
    16     8    32 1   
    17     9    10 ar  
    18     9    33 1   
    19    10    11 ar  
    20    10    34 1   
    21    11    12 ar  
    22    11    16 1   
    23    12    35 1   
    24    13    14 1   
    25    13    15 2   
    26    14    36 1   
    27    14    37 1   
    28    15    38 1   
    29    16    17 1   
    30    16    20 2   
    31    17    18 1   
    32    17    39 1   
    33    18    19 ar  
    34    18    24 ar  
    35    19    20 1   
    36    19    21 ar  
    37    21    22 ar  
    38    21    40 1   
    39    22    23 ar  
    40    22    41 1   
    41    23    24 ar  
    42    23    25 1   
    43    24    42 1   
    44    25    26 1   
    45    25    27 2   
    46    26    43 1   
    47    26    44 1   
    48    27    45 1   
@<TRIPOS>SUBSTRUCTURE
     1 DB9         1 TEMP              0 ****  ****    0 ROOT
