@<TRIPOS>MOLECULE
DB9
   45    48     1     0     0
SMALL
abcg2


@<TRIPOS>ATOM
      1 C1           2.0560     1.8450    10.6500 ca         1 DB9      -0.086500
      2 C2           2.9350     1.6260    11.7080 ca         1 DB9      -0.192900
      3 C3           3.6240     0.4160    11.7640 ca         1 DB9      -0.086500
      4 C4           3.4340    -0.5500    10.7900 ca         1 DB9      -0.104000
      5 C5           2.5620    -0.3300     9.7230 cp         1 DB9      -0.022000
      6 C6           1.8760     0.8840     9.6700 ca         1 DB9      -0.104000
      7 C7           2.3760    -1.3520     8.6750 cp         1 DB9      -0.040000
      8 C8           2.3440    -2.7100     8.9920 ca         1 DB9      -0.082000
      9 C9           2.1800    -3.6620     7.9970 ca         1 DB9      -0.114000
     10 C10          2.0420    -3.2790     6.6740 ca         1 DB9      -0.057000
     11 C11          2.0670    -1.9260     6.3380 ca         1 DB9      -0.116900
     12 C12          2.2380    -0.9750     7.3410 ca         1 DB9      -0.091000
     13 C13          3.1120     2.6660    12.7590 ce         1 DB9       0.660800
     14 N14          4.3670     2.7400    13.2850 nv         1 DB9      -1.031200
     15 N15          2.1790     3.4220    13.1960 n2         1 DB9      -0.841100
     16 C16          1.9300    -1.5340     4.9360 cc         1 DB9       0.476400
     17 N17          1.6370    -0.2630     4.5470 na         1 DB9      -0.306600
     18 C18          1.5880    -0.2540     3.1820 ca         1 DB9      -0.085200
     19 C19          1.8650    -1.5800     2.8070 ca         1 DB9       0.084400
     20 N20          2.0740    -2.3470     3.9210 nd         1 DB9      -0.573100
     21 C21          1.8900    -1.9210     1.4550 ca         1 DB9      -0.053000
     22 C22          1.6260    -0.9300     0.5300 ca         1 DB9      -0.111000
     23 C23          1.3490     0.3960     0.9180 ca         1 DB9      -0.178900
     24 C24          1.3280     0.7490     2.2610 ca         1 DB9      -0.095000
     25 C25          1.0890     1.4460    -0.1070 ce         1 DB9       0.661800
     26 N26          0.4540     1.0090    -1.2310 nv         1 DB9      -1.031200
     27 N27          1.4460     2.6700    -0.0020 n2         1 DB9      -0.846100
     28 H1           1.5140     2.7800    10.5770 ha         1 DB9       0.123500
     29 H3           4.3090     0.2160    12.5780 ha         1 DB9       0.123500
     30 H4           3.9880    -1.4780    10.8520 ha         1 DB9       0.117000
     31 H6           1.1790     1.0790     8.8650 ha         1 DB9       0.117000
     32 H8           2.4310    -3.0280    10.0240 ha         1 DB9       0.120000
     33 H9           2.1500    -4.7120     8.2570 ha         1 DB9       0.122000
     34 H10          1.9110    -4.0230     5.9000 ha         1 DB9       0.142000
     35 H12          2.3080     0.0760     7.0900 ha         1 DB9       0.108000
     36 H141         4.5450     3.5160    13.9040 hn         1 DB9       0.469500
     37 H142         5.1460     2.4980    12.6950 hn         1 DB9       0.469500
     38 HN15         1.2890     3.1720    12.7810 hn         1 DB9       0.388400
     39 HN17         1.4370     0.5190     5.1490 hn         1 DB9       0.359000
     40 H21          2.1130    -2.9320     1.1400 ha         1 DB9       0.133000
     41 H22          1.6560    -1.1760    -0.5230 ha         1 DB9       0.126000
     42 H24          1.0950     1.7580     2.5780 ha         1 DB9       0.123000
     43 H261         0.1420     1.7220    -1.8710 hn         1 DB9       0.469500
     44 H262        -0.1700     0.2230    -1.1530 hn         1 DB9       0.469500
     45 HN27         1.9990     2.8090     0.8350 hn         1 DB9       0.386400
@<TRIPOS>BOND
     1     1     2 ar  
     2     1     6 ar  
     3     1    28 1   
     4     2     3 ar  
     5     2    13 1   
     6     3     4 ar  
     7     3    29 1   
     8     4     5 ar  
     9     4    30 1   
    10     5     6 ar  
    11     5     7 1   
    12     6    31 1   
    13     7     8 ar  
    14     7    12 ar  
    15     8     9 ar  
    16     8    32 1   
    17     9    10 ar  
    18     9    33 1   
    19    10    11 ar  
    20    10    34 1   
    21    11    12 ar  
    22    11    16 1   
    23    12    35 1   
    24    13    14 1   
    25    13    15 2   
    26    14    36 1   
    27    14    37 1   
    28    15    38 1   
    29    16    17 1   
    30    16    20 2   
    31    17    18 1   
    32    17    39 1   
    33    18    19 ar  
    34    18    24 ar  
    35    19    20 1   
    36    19    21 ar  
    37    21    22 ar  
    38    21    40 1   
    39    22    23 ar  
    40    22    41 1   
    41    23    24 ar  
    42    23    25 1   
    43    24    42 1   
    44    25    26 1   
    45    25    27 2   
    46    26    43 1   
    47    26    44 1   
    48    27    45 1   
@<TRIPOS>SUBSTRUCTURE
     1 DB9         1 TEMP              0 ****  ****    0 ROOT
