@<TRIPOS>MOLECULE
DBA
   24    24     1     0     0
SMALL
No Charge or Current Charge


@<TRIPOS>ATOM
      1 C1          -0.0190     0.0090    -3.0490 c          1 DBA       0.725000
      2 C2          -0.0100     0.5110    -1.5700 c3         1 DBA       0.015600
      3 C7           0.0110    -0.2420     0.7450 ca         1 DBA       0.133100
      4 C8           1.2440    -0.0740     1.4190 ca         1 DBA      -0.098800
      5 C3           1.2410     0.2560     2.7880 ca         1 DBA      -0.116000
      6 C4           0.0280     0.4100     3.4780 ca         1 DBA      -0.142000
      7 C5          -1.1930     0.2320     2.8080 ca         1 DBA      -0.116000
      8 C6          -1.2120    -0.0980     1.4400 ca         1 DBA      -0.098800
      9 CM2          2.5710    -0.2440     0.6870 c3         1 DBA      -0.036800
     10 CM6         -2.5480    -0.2940     0.7300 c3         1 DBA      -0.036800
     11 O1          -0.0150    -1.1940    -3.2830 o          1 DBA      -0.718500
     12 O2          -0.0300     0.8560    -3.9330 o          1 DBA      -0.718500
     13 O3           0.0030    -0.5590    -0.5950 os         1 DBA      -0.338100
     14 H21         -0.8980     1.1390    -1.4240 h1         1 DBA       0.007700
     15 H22          0.8730     1.1490    -1.4380 h1         1 DBA       0.007700
     16 H3           2.1800     0.3940     3.3200 ha         1 DBA       0.094000
     17 H4           0.0350     0.6660     4.5350 ha         1 DBA       0.093000
     18 H5          -2.1250     0.3520     3.3560 ha         1 DBA       0.094000
     19 HM21         2.5710    -1.1470     0.0660 hc         1 DBA       0.041700
     20 HM22         2.7720     0.6140     0.0350 hc         1 DBA       0.041700
     21 HM23         3.4110    -0.3310     1.3870 hc         1 DBA       0.041700
     22 HM61        -2.7710     0.5550     0.0730 hc         1 DBA       0.041700
     23 HM62        -2.5430    -1.2020     0.1160 hc         1 DBA       0.041700
     24 HM63        -3.3760    -0.3870     1.4420 hc         1 DBA       0.041700
@<TRIPOS>BOND
     1     1     2 1   
     2     1    11 1   
     3     1    12 1   
     4     2    13 1   
     5     2    14 1   
     6     2    15 1   
     7     3     4 ar  
     8     3     8 ar  
     9     3    13 1   
    10     4     5 ar  
    11     4     9 1   
    12     5     6 ar  
    13     5    16 1   
    14     6     7 ar  
    15     6    17 1   
    16     7     8 ar  
    17     7    18 1   
    18     8    10 1   
    19     9    19 1   
    20     9    20 1   
    21     9    21 1   
    22    10    22 1   
    23    10    23 1   
    24    10    24 1   
@<TRIPOS>SUBSTRUCTURE
     1 DBA         1 TEMP              0 ****  ****    0 ROOT
