@<TRIPOS>MOLECULE
DBA
   24    24     1     0     0
SMALL
bcc


@<TRIPOS>ATOM
      1 C1          -0.0250     0.0280    -2.9450 c          1 DBA       0.935600
      2 C2          -0.0090     0.5070    -1.4870 c3         1 DBA      -0.007600
      3 C7           0.0130    -0.2310     0.7340 ca         1 DBA       0.133100
      4 C8           1.2370    -0.0640     1.3890 ca         1 DBA      -0.098800
      5 C3           1.2230     0.2600     2.7430 ca         1 DBA      -0.134000
      6 C4           0.0270     0.4170     3.4270 ca         1 DBA      -0.160000
      7 C5          -1.1760     0.2360     2.7600 ca         1 DBA      -0.134000
      8 C6          -1.2040    -0.0880     1.4070 ca         1 DBA      -0.098800
      9 CM2          2.5330    -0.2560     0.6550 c3         1 DBA      -0.036800
     10 CM6         -2.5060    -0.3060     0.6920 c3         1 DBA      -0.036800
     11 O1          -0.0260    -1.1920    -3.1640 o          1 DBA      -0.823800
     12 O2          -0.0350     0.9560    -3.7790 o          1 DBA      -0.823800
     13 O3           0.0060    -0.5860    -0.5820 os         1 DBA      -0.314900
     14 H21         -0.8880     1.1410    -1.3140 h1         1 DBA       0.007700
     15 H22          0.8690     1.1490    -1.3350 h1         1 DBA       0.007700
     16 H3           2.1640     0.3900     3.2650 ha         1 DBA       0.112000
     17 H4           0.0320     0.6650     4.4800 ha         1 DBA       0.111000
     18 H5          -2.1110     0.3480     3.2960 ha         1 DBA       0.112000
     19 HM21         2.5670    -1.2180     0.1440 hc         1 DBA       0.041700
     20 HM22         2.6910     0.5120    -0.1050 hc         1 DBA       0.041700
     21 HM23         3.3750    -0.2100     1.3430 hc         1 DBA       0.041700
     22 HM61        -2.6860     0.4530    -0.0720 hc         1 DBA       0.041700
     23 HM62        -2.5340    -1.2740     0.1910 hc         1 DBA       0.041700
     24 HM63        -3.3400    -0.2660     1.3920 hc         1 DBA       0.041700
@<TRIPOS>BOND
     1     1     2 1   
     2     1    11 1   
     3     1    12 1   
     4     2    13 1   
     5     2    14 1   
     6     2    15 1   
     7     3     4 ar  
     8     3     8 ar  
     9     3    13 1   
    10     4     5 ar  
    11     4     9 1   
    12     5     6 ar  
    13     5    16 1   
    14     6     7 ar  
    15     6    17 1   
    16     7     8 ar  
    17     7    18 1   
    18     8    10 1   
    19     9    19 1   
    20     9    20 1   
    21     9    21 1   
    22    10    22 1   
    23    10    23 1   
    24    10    24 1   
@<TRIPOS>SUBSTRUCTURE
     1 DBA         1 TEMP              0 ****  ****    0 ROOT
