@<TRIPOS>MOLECULE
DBB
   15    14     1     0     0
SMALL
abcg2


@<TRIPOS>ATOM
      1 N            0.4090    -3.9160    -0.0000 n8         1 DBB      -0.991200
      2 CA           1.3490    -4.4940     0.9470 c3         1 DBB       0.019500
      3 C            2.6810    -4.8460     0.2440 c          1 DBB       0.725000
      4 O            3.3500    -5.7630     0.7600 o          1 DBB      -0.734500
      5 CB           1.6610    -3.6090     2.1670 c3         1 DBB      -0.103400
      6 CG           0.4430    -3.2840     3.0220 c3         1 DBB      -0.087100
      7 OXT          2.9950    -4.1560    -0.7480 o          1 DBB      -0.734500
      8 H           -0.3810    -3.5090     0.4850 hn         1 DBB       0.374000
      9 H1           0.8730    -3.1610    -0.4900 hn         1 DBB       0.374000
     10 HA           0.9130    -5.4250     1.3280 h1         1 DBB       0.041700
     11 HB2          2.4050    -4.1170     2.7870 hc         1 DBB       0.040700
     12 HB3          2.1290    -2.6790     1.8230 hc         1 DBB       0.040700
     13 HG1          0.7210    -2.6970     3.8980 hc         1 DBB       0.011033
     14 HG2         -0.3010    -2.7030     2.4740 hc         1 DBB       0.011033
     15 HG3         -0.0430    -4.1960     3.3760 hc         1 DBB       0.011033
@<TRIPOS>BOND
     1     1     2 1   
     2     1     8 1   
     3     1     9 1   
     4     2     3 1   
     5     2     5 1   
     6     2    10 1   
     7     3     4 1   
     8     3     7 1   
     9     5     6 1   
    10     5    11 1   
    11     5    12 1   
    12     6    13 1   
    13     6    14 1   
    14     6    15 1   
@<TRIPOS>SUBSTRUCTURE
     1 DBB         1 TEMP              0 ****  ****    0 ROOT
