@<TRIPOS>MOLECULE
DBB
   15    14     1     0     0
SMALL
No Charge or Current Charge


@<TRIPOS>ATOM
      1 N            0.3470    -3.9330     0.0170 n8         1 DBB      -0.991200
      2 CA           1.3980    -4.4960     0.9380 c3         1 DBB       0.019500
      3 C            2.7690    -4.9360     0.2680 c          1 DBB       0.725000
      4 O            3.1010    -6.1130     0.3420 o          1 DBB      -0.734500
      5 CB           1.6470    -3.5160     2.1170 c3         1 DBB      -0.103400
      6 CG           0.4200    -3.2770     3.0240 c3         1 DBB      -0.087100
      7 OXT          3.4110    -4.1010    -0.3590 o          1 DBB      -0.734500
      8 H           -0.4100    -3.5360     0.5840 hn         1 DBB       0.374000
      9 H1           0.7420    -3.1200    -0.4710 hn         1 DBB       0.374000
     10 HA           0.9710    -5.4100     1.3750 h1         1 DBB       0.041700
     11 HB2          2.4550    -3.9200     2.7390 hc         1 DBB       0.040700
     12 HB3          2.0070    -2.5540     1.7300 hc         1 DBB       0.040700
     13 HG1          0.6920    -2.6300     3.8660 hc         1 DBB       0.011033
     14 HG2         -0.3940    -2.7900     2.4740 hc         1 DBB       0.011033
     15 HG3          0.0470    -4.2250     3.4300 hc         1 DBB       0.011033
@<TRIPOS>BOND
     1     1     2 1   
     2     1     8 1   
     3     1     9 1   
     4     2     3 1   
     5     2     5 1   
     6     2    10 1   
     7     3     4 1   
     8     3     7 1   
     9     5     6 1   
    10     5    11 1   
    11     5    12 1   
    12     6    13 1   
    13     6    14 1   
    14     6    15 1   
@<TRIPOS>SUBSTRUCTURE
     1 DBB         1 TEMP              0 ****  ****    0 ROOT
