@<TRIPOS>MOLECULE
DBC
   20    20     1     0     0
SMALL
bcc


@<TRIPOS>ATOM
      1 O4           0.0660     2.9520    -0.5640 oh         1 DBC      -0.587800
      2 C5           0.0510     1.9310     0.3490 c5         1 DBC       0.533700
      3 O3          -1.0870     1.1510     0.1460 os         1 DBC      -0.423100
      4 O2           1.1530     1.0950     0.1410 os         1 DBC      -0.423100
      5 C2           0.7340    -0.2490     0.2440 c5         1 DBC       0.134100
      6 C1           1.6020    -1.1320    -0.6190 c3         1 DBC       0.023700
      7 S1           3.3410    -0.9680    -0.0920 sh         1 DBC      -0.354900
      8 C3          -0.7240    -0.1690    -0.2100 c5         1 DBC       0.134100
      9 C4          -1.6240    -1.1690     0.4780 c3         1 DBC       0.023700
     10 S4          -3.3540    -0.8690    -0.0120 sh         1 DBC      -0.354900
     11 HO4          0.4130     3.7520    -0.1550 ho         1 DBC       0.432000
     12 H5           0.0480     2.3200     1.3770 h3         1 DBC       0.052700
     13 H2           0.7910    -0.5910     1.2880 h1         1 DBC       0.071700
     14 H11          1.2900    -2.1680    -0.4910 h1         1 DBC       0.068450
     15 H12          1.4980    -0.8650    -1.6710 h1         1 DBC       0.068450
     16 HS1          3.7790    -2.1250    -0.5960 hs         1 DBC       0.196800
     17 H3          -0.7960    -0.3010    -1.2990 h1         1 DBC       0.071700
     18 H41         -1.3360    -2.1730     0.1670 h1         1 DBC       0.068450
     19 H42         -1.5200    -1.0970     1.5610 h1         1 DBC       0.068450
     20 HS4         -3.8370    -2.0620     0.3470 hs         1 DBC       0.196800
@<TRIPOS>BOND
     1     1     2 1   
     2     1    11 1   
     3     2     3 1   
     4     2     4 1   
     5     2    12 1   
     6     3     8 1   
     7     4     5 1   
     8     5     6 1   
     9     5     8 1   
    10     5    13 1   
    11     6     7 1   
    12     6    14 1   
    13     6    15 1   
    14     7    16 1   
    15     8     9 1   
    16     8    17 1   
    17     9    10 1   
    18     9    18 1   
    19     9    19 1   
    20    10    20 1   
@<TRIPOS>SUBSTRUCTURE
     1 DBC         1 TEMP              0 ****  ****    0 ROOT
