@<TRIPOS>MOLECULE
DBC
   20    20     1     0     0
SMALL
No Charge or Current Charge


@<TRIPOS>ATOM
      1 O4           0.4560     2.2240    -0.8910 oh         1 DBC      -0.615000
      2 C5           0.0360     1.9040     0.4150 c5         1 DBC       0.568300
      3 O3          -1.1820     1.1600     0.3820 os         1 DBC      -0.469500
      4 O2           0.9560     0.9920     1.0200 os         1 DBC      -0.469500
      5 C2           0.6400    -0.3310     0.5080 c5         1 DBC       0.157300
      6 C1           1.6800    -0.7880    -0.5490 c3         1 DBC       0.071600
      7 S1           3.4390    -0.9760     0.0190 sh         1 DBC      -0.402800
      8 C3          -0.8160    -0.1730    -0.0450 c5         1 DBC       0.157300
      9 C4          -1.8380    -1.2100     0.4780 c3         1 DBC       0.071600
     10 S4          -3.5720    -1.1020    -0.1790 sh         1 DBC      -0.402800
     11 HO4          1.3320     2.6400    -0.7620 ho         1 DBC       0.471000
     12 H5          -0.0520     2.8580     0.9530 h3         1 DBC       0.052700
     13 H2           0.6710    -1.0390     1.3480 h1         1 DBC       0.071700
     14 H11          1.3580    -1.7600    -0.9430 h1         1 DBC       0.068450
     15 H12          1.6720    -0.0820    -1.3880 h1         1 DBC       0.068450
     16 HS1          3.9420    -1.3670    -1.1780 hs         1 DBC       0.196800
     17 H3          -0.8190    -0.2020    -1.1440 h1         1 DBC       0.071700
     18 H41         -1.4590    -2.2130     0.2410 h1         1 DBC       0.068450
     19 H42         -1.8860    -1.1300     1.5720 h1         1 DBC       0.068450
     20 HS4         -4.0690    -2.1420     0.5350 hs         1 DBC       0.196800
@<TRIPOS>BOND
     1     1     2 1   
     2     1    11 1   
     3     2     3 1   
     4     2     4 1   
     5     2    12 1   
     6     3     8 1   
     7     4     5 1   
     8     5     6 1   
     9     5     8 1   
    10     5    13 1   
    11     6     7 1   
    12     6    14 1   
    13     6    15 1   
    14     7    16 1   
    15     8     9 1   
    16     8    17 1   
    17     9    10 1   
    18     9    18 1   
    19     9    19 1   
    20    10    20 1   
@<TRIPOS>SUBSTRUCTURE
     1 DBC         1 TEMP              0 ****  ****    0 ROOT
