@<TRIPOS>MOLECULE
DBD
   43    46     1     0     0
SMALL
No Charge or Current Charge


@<TRIPOS>ATOM
      1 O1          -2.6820     0.1410    -0.5180 os         1 DBD      -0.478000
      2 C2          -1.4590    -0.5730    -0.2250 c6         1 DBD       0.275600
      3 C3          -1.1040    -0.4030     1.2390 cc         1 DBD      -0.421300
      4 C4          -1.9930     0.0240     2.1950 cd         1 DBD       0.022700
      5 C5          -3.4270     0.3550     1.8110 c6         1 DBD      -0.040100
      6 C6          -3.7610    -0.1530     0.3890 c6         1 DBD       0.161600
      7 S7           0.4580    -0.7790     1.9370 ss         1 DBD       0.160000
      8 C8          -0.0990    -0.2800     3.5350 cc         1 DBD       0.037600
      9 C9          -1.4290     0.1240     3.5200 cd         1 DBD      -0.274600
     10 C10         -2.1490     0.6060     4.7550 c          1 DBD       0.738600
     11 O11         -1.5580     0.6260     5.8260 o          1 DBD      -0.729500
     12 O12         -3.3060     0.9810     4.6660 o          1 DBD      -0.729500
     13 N13          0.6720    -0.2780     4.6930 ns         1 DBD      -0.361100
     14 C14          1.9990    -0.6430     4.8880 c          1 DBD       0.437100
     15 C15          2.4900    -0.4770     6.4350 c          1 DBD       0.672000
     16 O16          1.6740    -0.0590     7.2550 o          1 DBD      -0.693000
     17 O17          3.6470    -0.7720     6.7310 o          1 DBD      -0.693000
     18 O18          2.7270    -1.0510     3.9780 o          1 DBD      -0.645100
     19 C19         -0.3570    -0.0230    -1.1800 c3         1 DBD       0.163600
     20 O20         -0.6820    -0.3550    -2.5440 os         1 DBD      -0.383600
     21 C21          0.1700     0.0780    -3.5300 ce         1 DBD       0.771200
     22 C22         -0.2410    -0.2610    -4.9270 ca         1 DBD      -0.147900
     23 C23          0.6860     0.2160    -5.8330 ca         1 DBD      -0.254500
     24 S24          1.9520     1.0210    -4.9000 sy         1 DBD       1.169100
     25 N25          1.2960     0.7400    -3.4550 nf         1 DBD      -0.737300
     26 C26         -1.3780    -0.9560    -5.3750 ca         1 DBD      -0.042000
     27 C27         -1.5400    -1.1490    -6.7650 ca         1 DBD      -0.091000
     28 C28         -0.5790    -0.6540    -7.6800 ca         1 DBD      -0.113000
     29 C29          0.5570     0.0420    -7.2170 ca         1 DBD       0.000000
     30 O30          1.8950     2.4560    -5.2000 o          1 DBD      -0.532500
     31 O31          3.1870     0.2440    -5.0430 o          1 DBD      -0.532500
     32 H2          -1.6140    -1.6390    -0.4480 h1         1 DBD       0.025700
     33 H51         -3.5860     1.4400     1.8540 hc         1 DBD       0.072200
     34 H52         -4.1390    -0.1000     2.5100 hc         1 DBD       0.072200
     35 H61         -4.6810     0.3270     0.0250 h1         1 DBD       0.023200
     36 H62         -3.9260    -1.2400     0.4050 h1         1 DBD       0.023200
     37 H13          0.1990     0.0390     5.5420 hn         1 DBD       0.412500
     38 H191        -0.2840     1.0640    -1.0420 h1         1 DBD       0.084700
     39 H192         0.6070    -0.4670    -0.9020 h1         1 DBD       0.084700
     40 H26         -2.1170    -1.3370    -4.6720 ha         1 DBD       0.144000
     41 H27         -2.4110    -1.6840    -7.1360 ha         1 DBD       0.113000
     42 H28         -0.7170    -0.8100    -8.7470 ha         1 DBD       0.108000
     43 H29          1.3030     0.4290    -7.9100 ha         1 DBD       0.125000
@<TRIPOS>BOND
     1     1     2 1   
     2     1     6 1   
     3     2     3 1   
     4     2    19 1   
     5     2    32 1   
     6     3     4 2   
     7     3     7 1   
     8     4     5 1   
     9     4     9 1   
    10     5     6 1   
    11     5    33 1   
    12     5    34 1   
    13     6    35 1   
    14     6    36 1   
    15     7     8 1   
    16     8     9 2   
    17     8    13 1   
    18     9    10 1   
    19    10    11 1   
    20    10    12 1   
    21    13    14 1   
    22    13    37 1   
    23    14    15 1   
    24    14    18 2   
    25    15    16 1   
    26    15    17 1   
    27    19    20 1   
    28    19    38 1   
    29    19    39 1   
    30    20    21 1   
    31    21    22 1   
    32    21    25 2   
    33    22    23 ar  
    34    22    26 ar  
    35    23    24 1   
    36    23    29 ar  
    37    24    25 1   
    38    24    30 2   
    39    24    31 2   
    40    26    27 ar  
    41    26    40 1   
    42    27    28 ar  
    43    27    41 1   
    44    28    29 ar  
    45    28    42 1   
    46    29    43 1   
@<TRIPOS>SUBSTRUCTURE
     1 DBD         1 TEMP              0 ****  ****    0 ROOT
