@<TRIPOS>MOLECULE
DBD
   43    46     1     0     0
SMALL
bcc


@<TRIPOS>ATOM
      1 O1          -2.6700    -0.0310    -0.5580 os         1 DBD      -0.431600
      2 C2          -1.4550    -0.6420    -0.2120 c6         1 DBD       0.252400
      3 C3          -1.1440    -0.4040     1.2370 cc         1 DBD      -0.276400
      4 C4          -2.0270     0.1020     2.1370 cd         1 DBD       0.022700
      5 C5          -3.4280     0.4100     1.7040 c6         1 DBD      -0.040100
      6 C6          -3.7030    -0.2760     0.3770 c6         1 DBD       0.138400
      7 S7           0.3880    -0.7800     1.9470 ss         1 DBD      -0.129800
      8 C8          -0.1710    -0.2250     3.4860 cc         1 DBD       0.182500
      9 C9          -1.4700     0.2270     3.4530 cd         1 DBD      -0.274600
     10 C10         -2.1740     0.7890     4.6600 c          1 DBD       0.949200
     11 O11         -1.5480     0.7480     5.7500 o          1 DBD      -0.834800
     12 O12         -3.3120     1.2570     4.4930 o          1 DBD      -0.834800
     13 N13          0.6330    -0.2450     4.5960 ns         1 DBD      -0.428100
     14 C14          1.9130    -0.6730     4.6240 c          1 DBD       0.504100
     15 C15          2.5830    -0.5780     6.0220 c          1 DBD       0.882600
     16 O16          1.8630    -0.1390     6.9330 o          1 DBD      -0.798300
     17 O17          3.7610    -0.9500     6.0620 o          1 DBD      -0.798300
     18 O18          2.4810    -1.0940     3.6290 o          1 DBD      -0.645100
     19 C19         -0.3790    -0.0400    -1.0910 c3         1 DBD       0.140400
     20 O20         -0.7080    -0.3580    -2.4500 os         1 DBD      -0.360400
     21 C21          0.0880     0.0470    -3.3910 ce         1 DBD       0.771200
     22 C22         -0.2830    -0.2830    -4.7790 ca         1 DBD      -0.147900
     23 C23          0.6680     0.2260    -5.6440 ca         1 DBD      -0.254500
     24 S24          1.9060     1.0410    -4.6630 sy         1 DBD       1.310700
     25 N25          1.1710     0.7120    -3.1970 nf         1 DBD      -0.737300
     26 C26         -1.3730    -0.9810    -5.2620 ca         1 DBD      -0.060000
     27 C27         -1.4740    -1.1500    -6.6390 ca         1 DBD      -0.109000
     28 C28         -0.5100    -0.6350    -7.4980 ca         1 DBD      -0.131000
     29 C29          0.5880     0.0680    -7.0090 ca         1 DBD      -0.018000
     30 O30          1.8790     2.4710    -4.8940 o          1 DBD      -0.603300
     31 O31          3.1690     0.3470    -4.7430 o          1 DBD      -0.603300
     32 H2          -1.5030    -1.7260    -0.4090 h1         1 DBD       0.025700
     33 H51         -3.5770     1.4900     1.6190 hc         1 DBD       0.072200
     34 H52         -4.1450     0.0650     2.4480 hc         1 DBD       0.072200
     35 H61         -4.6230     0.0970    -0.0730 h1         1 DBD       0.023200
     36 H62         -3.8270    -1.3570     0.5320 h1         1 DBD       0.023200
     37 H13          0.1650     0.0930     5.4420 hn         1 DBD       0.412500
     38 H191        -0.3370     1.0440    -0.9620 h1         1 DBD       0.084700
     39 H192         0.6020    -0.4570    -0.8510 h1         1 DBD       0.084700
     40 H26         -2.1270    -1.3880    -4.6020 ha         1 DBD       0.162000
     41 H27         -2.3150    -1.6920    -7.0460 ha         1 DBD       0.131000
     42 H28         -0.6130    -0.7830    -8.5640 ha         1 DBD       0.126000
     43 H29          1.3390     0.4640    -7.6780 ha         1 DBD       0.143000
@<TRIPOS>BOND
     1     1     2 1   
     2     1     6 1   
     3     2     3 1   
     4     2    19 1   
     5     2    32 1   
     6     3     4 2   
     7     3     7 1   
     8     4     5 1   
     9     4     9 1   
    10     5     6 1   
    11     5    33 1   
    12     5    34 1   
    13     6    35 1   
    14     6    36 1   
    15     7     8 1   
    16     8     9 2   
    17     8    13 1   
    18     9    10 1   
    19    10    11 1   
    20    10    12 1   
    21    13    14 1   
    22    13    37 1   
    23    14    15 1   
    24    14    18 2   
    25    15    16 1   
    26    15    17 1   
    27    19    20 1   
    28    19    38 1   
    29    19    39 1   
    30    20    21 1   
    31    21    22 1   
    32    21    25 2   
    33    22    23 ar  
    34    22    26 ar  
    35    23    24 1   
    36    23    29 ar  
    37    24    25 1   
    38    24    30 2   
    39    24    31 2   
    40    26    27 ar  
    41    26    40 1   
    42    27    28 ar  
    43    27    41 1   
    44    28    29 ar  
    45    28    42 1   
    46    29    43 1   
@<TRIPOS>SUBSTRUCTURE
     1 DBD         1 TEMP              0 ****  ****    0 ROOT
