@<TRIPOS>MOLECULE
DBE
   26    27     1     0     0
SMALL
No Charge or Current Charge


@<TRIPOS>ATOM
      1 C5          34.4860    55.2220    32.3550 ca         1 DBE      -0.193250
      2 C4          33.9220    54.0120    31.9150 ca         1 DBE      -0.025250
      3 C10         35.9380    53.5430    30.6340 ca         1 DBE      -0.025250
      4 C1          36.4970    54.7540    31.0780 ca         1 DBE      -0.193250
      5 C6          35.7740    55.5900    31.9390 ca         1 DBE       0.165100
      6 C12         34.6500    53.1540    31.0600 ca         1 DBE      -0.209100
      7 O10         34.3420    51.4310    29.4510 o          1 DBE      -0.529100
      8 C11         34.0550    51.8580    30.5640 c          1 DBE       0.604300
      9 C13         33.1040    51.0910    31.4520 ca         1 DBE      -0.209100
     10 C18         33.2500    51.1000    32.8580 ca         1 DBE      -0.025250
     11 C17         32.3640    50.3680    33.6680 ca         1 DBE      -0.193250
     12 C16         31.3340    49.6170    33.0830 ca         1 DBE       0.165100
     13 C15         31.1920    49.5890    31.6900 ca         1 DBE      -0.193250
     14 C14         32.0750    50.3170    30.8740 ca         1 DBE      -0.025250
     15 O23         36.3260    56.7610    32.3610 oh         1 DBE      -0.527100
     16 O24         30.4730    48.9060    33.8630 oh         1 DBE      -0.527100
     17 H1          37.4920    55.0430    30.7510 ha         1 DBE       0.124750
     18 H10         36.5120    52.9040    29.9640 ha         1 DBE       0.126500
     19 H4          32.9120    53.7530    32.2310 ha         1 DBE       0.126500
     20 H5          33.9130    55.8700    33.0140 ha         1 DBE       0.124750
     21 H23         35.6820    57.2110    32.9490 ho         1 DBE       0.468500
     22 H14         31.9530    50.2850    29.7930 ha         1 DBE       0.126500
     23 H18         34.0570    51.6610    33.3270 ha         1 DBE       0.126500
     24 H15         30.3970    49.0010    31.2380 ha         1 DBE       0.124750
     25 H17         32.4890    50.3870    34.7480 ha         1 DBE       0.124750
     26 H24         30.7230    49.0410    34.8010 ho         1 DBE       0.468500
@<TRIPOS>BOND
     1     1     2 ar  
     2     1     5 ar  
     3     1    20 1   
     4     2     6 ar  
     5     2    19 1   
     6     3     4 ar  
     7     3     6 ar  
     8     3    18 1   
     9     4     5 ar  
    10     4    17 1   
    11     5    15 1   
    12     6     8 1   
    13     7     8 2   
    14     8     9 1   
    15     9    10 ar  
    16     9    14 ar  
    17    10    11 ar  
    18    10    23 1   
    19    11    12 ar  
    20    11    25 1   
    21    12    13 ar  
    22    12    16 1   
    23    13    14 ar  
    24    13    24 1   
    25    14    22 1   
    26    15    21 1   
    27    16    26 1   
@<TRIPOS>SUBSTRUCTURE
     1 DBE         1 TEMP              0 ****  ****    0 ROOT
