@<TRIPOS>MOLECULE
DBE
   26    27     1     0     0
SMALL
abcg2


@<TRIPOS>ATOM
      1 C5          34.5060    55.2130    32.3740 ca         1 DBE      -0.193250
      2 C4          33.9630    53.9970    31.9980 ca         1 DBE      -0.025250
      3 C10         35.8900    53.5470    30.6440 ca         1 DBE      -0.025250
      4 C1          36.4530    54.7450    31.0280 ca         1 DBE      -0.193250
      5 C6          35.7590    55.5920    31.8970 ca         1 DBE       0.165100
      6 C12         34.6430    53.1410    31.1310 ca         1 DBE      -0.209100
      7 O10         34.3510    51.4410    29.5420 o          1 DBE      -0.529100
      8 C11         34.0560    51.8720    30.6450 c          1 DBE       0.604300
      9 C13         33.1040    51.1320    31.5050 ca         1 DBE      -0.209100
     10 C18         33.2030    51.1240    32.8960 ca         1 DBE      -0.025250
     11 C17         32.3430    50.3640    33.6700 ca         1 DBE      -0.193250
     12 C16         31.3460    49.6050    33.0590 ca         1 DBE       0.165100
     13 C15         31.2350    49.6030    31.6660 ca         1 DBE      -0.193250
     14 C14         32.1160    50.3450    30.9070 ca         1 DBE      -0.025250
     15 O23         36.3420    56.7510    32.2310 oh         1 DBE      -0.527100
     16 O24         30.4750    48.8610    33.7540 oh         1 DBE      -0.527100
     17 H1          37.4270    55.0380    30.6580 ha         1 DBE       0.124750
     18 H10         36.4340    52.9050    29.9640 ha         1 DBE       0.126500
     19 H4          32.9800    53.7350    32.3670 ha         1 DBE       0.126500
     20 H5          33.9510    55.8680    33.0360 ha         1 DBE       0.124750
     21 H23         35.7810    57.2570    32.8300 ho         1 DBE       0.468500
     22 H14         32.0220    50.3280    29.8280 ha         1 DBE       0.126500
     23 H18         33.9780    51.6930    33.3920 ha         1 DBE       0.126500
     24 H15         30.4590    49.0170    31.1910 ha         1 DBE       0.124750
     25 H17         32.4510    50.3600    34.7480 ha         1 DBE       0.124750
     26 H24         30.6440    48.9340    34.7000 ho         1 DBE       0.468500
@<TRIPOS>BOND
     1     1     2 ar  
     2     1     5 ar  
     3     1    20 1   
     4     2     6 ar  
     5     2    19 1   
     6     3     4 ar  
     7     3     6 ar  
     8     3    18 1   
     9     4     5 ar  
    10     4    17 1   
    11     5    15 1   
    12     6     8 1   
    13     7     8 2   
    14     8     9 1   
    15     9    10 ar  
    16     9    14 ar  
    17    10    11 ar  
    18    10    23 1   
    19    11    12 ar  
    20    11    25 1   
    21    12    13 ar  
    22    12    16 1   
    23    13    14 ar  
    24    13    24 1   
    25    14    22 1   
    26    15    21 1   
    27    16    26 1   
@<TRIPOS>SUBSTRUCTURE
     1 DBE         1 TEMP              0 ****  ****    0 ROOT
