@<TRIPOS>MOLECULE
DBF
   25    27     1     0     0
SMALL
bcc


@<TRIPOS>ATOM
      1 C1          -0.8860     0.0130     3.3680 ca         1 DBF      -0.114500
      2 C2           0.1470     0.0160     2.4320 ca         1 DBF      -0.125100
      3 C3          -0.2620    -0.0010     1.1000 ca         1 DBF       0.113600
      4 C4          -1.6100    -0.0160     0.7200 cp         1 DBF      -0.132500
      5 C5          -2.6130    -0.0180     1.6810 ca         1 DBF      -0.118000
      6 C6          -2.2340    -0.0040     3.0130 ca         1 DBF      -0.197500
      7 O            0.5430    -0.0040     0.0070 os         1 DBF      -0.078200
      8 C7           0.1650     0.0010    -2.4200 ca         1 DBF      -0.125100
      9 C8          -0.2560    -0.0180    -1.0920 ca         1 DBF       0.113600
     10 C9          -1.6050    -0.0230    -0.7210 cp         1 DBF      -0.132500
     11 C10         -2.6010    -0.0270    -1.6910 ca         1 DBF      -0.118000
     12 C11         -2.2110    -0.0100    -3.0190 ca         1 DBF      -0.197500
     13 C12         -0.8590     0.0110    -3.3640 ca         1 DBF      -0.114500
     14 O1           2.4680     0.0480     1.9990 o          1 DBF      -0.815050
     15 C13          1.6010     0.0400     2.8890 c          1 DBF       0.922700
     16 O2           1.7890     0.0510     4.1210 o          1 DBF      -0.815050
     17 O3           1.8370     0.2620    -4.0570 o          1 DBF      -0.815050
     18 C14          1.6240    -0.0130    -2.8610 c          1 DBF       0.922700
     19 O4           2.4650    -0.3080    -1.9950 o          1 DBF      -0.815050
     20 H1          -0.6180     0.0260     4.4160 ha         1 DBF       0.135000
     21 H5          -3.6580    -0.0310     1.3970 ha         1 DBF       0.097000
     22 H6          -2.9890    -0.0060     3.7880 ha         1 DBF       0.089000
     23 H10         -3.6480    -0.0380    -1.4160 ha         1 DBF       0.097000
     24 H11         -2.9600    -0.0110    -3.8010 ha         1 DBF       0.089000
     25 H12         -0.5840     0.0340    -4.4100 ha         1 DBF       0.135000
@<TRIPOS>BOND
     1     1     2 ar  
     2     1     6 ar  
     3     1    20 1   
     4     2     3 ar  
     5     2    15 1   
     6     3     4 ar  
     7     3     7 1   
     8     4     5 ar  
     9     4    10 1   
    10     5     6 ar  
    11     5    21 1   
    12     6    22 1   
    13     7     9 1   
    14     8     9 ar  
    15     8    13 ar  
    16     8    18 1   
    17     9    10 ar  
    18    10    11 ar  
    19    11    12 ar  
    20    11    23 1   
    21    12    13 ar  
    22    12    24 1   
    23    13    25 1   
    24    14    15 1   
    25    15    16 1   
    26    17    18 1   
    27    18    19 1   
@<TRIPOS>SUBSTRUCTURE
     1 DBF         1 TEMP              0 ****  ****    0 ROOT
