@<TRIPOS>MOLECULE
DBF
   25    27     1     0     0
SMALL
No Charge or Current Charge


@<TRIPOS>ATOM
      1 C1          -0.9020     0.0460     3.4410 ca         1 DBF      -0.096500
      2 C2           0.1490     0.0520     2.4840 ca         1 DBF      -0.125100
      3 C3          -0.2350     0.0300     1.1310 ca         1 DBF       0.113600
      4 C4          -1.5730     0.0090     0.7320 cp         1 DBF      -0.132500
      5 C5          -2.6130     0.0100     1.6760 ca         1 DBF      -0.100000
      6 C6          -2.2620     0.0280     3.0410 ca         1 DBF      -0.179500
      7 O            0.5720     0.0050     0.0080 os         1 DBF      -0.078200
      8 C7           0.1690    -0.0460    -2.4710 ca         1 DBF      -0.125100
      9 C8          -0.2260    -0.0280    -1.1210 ca         1 DBF       0.113600
     10 C9          -1.5670    -0.0200    -0.7320 cp         1 DBF      -0.132500
     11 C10         -2.5990    -0.0300    -1.6840 ca         1 DBF      -0.100000
     12 C11         -2.2370    -0.0450    -3.0460 ca         1 DBF      -0.179500
     13 C12         -0.8740    -0.0500    -3.4360 ca         1 DBF      -0.096500
     14 O1           2.4220     0.5980     2.1710 o          1 DBF      -0.709750
     15 C13          1.5990     0.0750     2.9080 c          1 DBF       0.712100
     16 O2           1.8870    -0.3970     3.9990 o          1 DBF      -0.709750
     17 O3           1.9150     0.4200    -3.9720 o          1 DBF      -0.709750
     18 C14          1.6220    -0.0550    -2.8830 c          1 DBF       0.712100
     19 O4           2.4440    -0.5710    -2.1400 o          1 DBF      -0.709750
     20 H1          -0.6650     0.0620     4.5030 ha         1 DBF       0.117000
     21 H5          -3.6540    -0.0070     1.3630 ha         1 DBF       0.079000
     22 H6          -3.0440     0.0270     3.7960 ha         1 DBF       0.071000
     23 H10         -3.6430    -0.0230    -1.3800 ha         1 DBF       0.079000
     24 H11         -3.0130    -0.0510    -3.8080 ha         1 DBF       0.071000
     25 H12         -0.6280    -0.0640    -4.4960 ha         1 DBF       0.117000
@<TRIPOS>BOND
     1     1     2 ar  
     2     1     6 ar  
     3     1    20 1   
     4     2     3 ar  
     5     2    15 1   
     6     3     4 ar  
     7     3     7 1   
     8     4     5 ar  
     9     4    10 1   
    10     5     6 ar  
    11     5    21 1   
    12     6    22 1   
    13     7     9 1   
    14     8     9 ar  
    15     8    13 ar  
    16     8    18 1   
    17     9    10 ar  
    18    10    11 ar  
    19    11    12 ar  
    20    11    23 1   
    21    12    13 ar  
    22    12    24 1   
    23    13    25 1   
    24    14    15 1   
    25    15    16 1   
    26    17    18 1   
    27    18    19 1   
@<TRIPOS>SUBSTRUCTURE
     1 DBF         1 TEMP              0 ****  ****    0 ROOT
