@<TRIPOS>MOLECULE
DBG
   71    75     1     0     0
SMALL
abcg2


@<TRIPOS>ATOM
      1 C22          3.9900     6.3000    -3.0880 ca         1 DBG      -0.074500
      2 C21          4.3700     7.0380    -4.2010 ca         1 DBG      -0.143500
      3 C20          5.7150     7.2390    -4.4780 ca         1 DBG      -0.133000
      4 C19          6.6820     6.6880    -3.6450 ca         1 DBG      -0.143500
      5 C18          6.3030     5.9310    -2.5480 ca         1 DBG      -0.074500
      6 C17          4.9540     5.7400    -2.2510 ca         1 DBG      -0.126600
      7 C16          4.5900     4.8440    -1.1110 c          1 DBG       0.604300
      8 O16          5.2700     3.8450    -0.9190 o          1 DBG      -0.621100
      9 C15          1.8090     4.3860     1.3620 ca         1 DBG       0.151000
     10 N15          1.2690     3.3760     2.1680 nv         1 DBG      -0.740000
     11 C14          2.8860     4.1620     0.5360 ca         1 DBG      -0.099000
     12 C13          3.4440     5.1710    -0.2650 ca         1 DBG      -0.295600
     13 C12          2.8960     6.4510    -0.1750 ca         1 DBG      -0.043000
     14 C11          1.8420     6.7120     0.6790 ca         1 DBG      -0.219000
     15 C10          1.2650     5.6990     1.4570 ca         1 DBG       0.452000
     16 N3G          0.2450     5.9300     2.3180 nu         1 DBG      -0.878300
     17 PG          -0.6740     7.3950     2.5270 p5         1 DBG       1.368600
     18 O1G          0.2660     8.4260     3.0950 o          1 DBG      -0.851500
     19 O2G         -1.4440     7.7100     1.2850 o          1 DBG      -0.851500
     20 N3B         -1.6920     6.8850     3.7880 n7         1 DBG      -1.003600
     21 PB          -3.0510     5.8610     3.7970 p5         1 DBG       1.468700
     22 O1B         -3.4170     5.6730     5.2420 o          1 DBG      -0.871000
     23 O2B         -4.0660     6.2980     2.7940 o          1 DBG      -0.871000
     24 O3A         -2.3870     4.4040     3.3270 os         1 DBG      -0.723800
     25 PA          -2.6870     3.4840     2.0170 p5         1 DBG       1.480800
     26 O1A         -1.6050     2.4320     1.9930 o          1 DBG      -0.874000
     27 O2A         -4.1150     3.0390     1.9550 o          1 DBG      -0.874000
     28 O5          -2.3710     4.6010     0.8790 os         1 DBG      -0.569400
     29 C5          -2.6630     4.3470    -0.4650 c3         1 DBG       0.253600
     30 C4          -1.6960     5.1510    -1.3130 c5         1 DBG       0.105300
     31 O4          -0.3530     4.7260    -1.0820 os         1 DBG      -0.398000
     32 C2          -1.0260     3.7840    -3.1050 c5         1 DBG       0.112300
     33 O2          -0.6090     3.6160    -4.4230 oh         1 DBG      -0.691000
     34 C3          -1.9390     4.9730    -2.8130 c5         1 DBG       0.096300
     35 O3          -1.4840     6.0640    -3.5710 oh         1 DBG      -0.722000
     36 C1           0.1710     4.1070    -2.2120 c5         1 DBG       0.320300
     37 N9           0.9210     2.9400    -1.8130 na         1 DBG      -0.166500
     38 C9           2.1220     2.5510    -2.3150 cc         1 DBG       0.134400
     39 N3           2.8290     3.1790    -3.2640 nc         1 DBG      -0.668100
     40 C23          3.9760     2.6060    -3.5160 cd         1 DBG       0.697800
     41 N2           4.7890     3.1200    -4.4600 nv         1 DBG      -1.041200
     42 N1           4.3870     1.4580    -2.9040 ns         1 DBG      -0.443400
     43 C6           3.7000     0.7740    -1.8950 c          1 DBG       0.529500
     44 O6           4.1840    -0.2240    -1.3830 o          1 DBG      -0.571000
     45 C7           2.4550     1.4050    -1.6170 cd         1 DBG       0.094500
     46 N7           1.4860     1.1040    -0.6930 nd         1 DBG      -0.632000
     47 C8           0.5920     2.0360    -0.8360 cc         1 DBG       0.444400
     48 H22          2.9410     6.1250    -2.8930 ha         1 DBG       0.137500
     49 H21          3.6130     7.4520    -4.8540 ha         1 DBG       0.096500
     50 H20          6.0110     7.8190    -5.3430 ha         1 DBG       0.086000
     51 H19          7.7320     6.8400    -3.8580 ha         1 DBG       0.096500
     52 H18          7.0600     5.4890    -1.9130 ha         1 DBG       0.137500
     53 H151         1.7470     2.4990     2.0180 hn         1 DBG       0.290000
     54 H152         0.2740     3.2010     2.0110 hn         1 DBG       0.290000
     55 H12          3.3170     7.2710    -0.7420 ha         1 DBG       0.074000
     56 H11          1.4700     7.7230     0.7570 ha         1 DBG       0.135000
     57 HNG3        -0.1100     5.1220     2.8050 hn         1 DBG       0.504000
     58 HNB3        -1.2480     6.9420     4.6960 hn         1 DBG       0.441000
     59 H5'1        -2.5930     3.2800    -0.7180 h1         1 DBG       0.000700
     60 H5'2        -3.6860     4.6620    -0.7070 h1         1 DBG       0.000700
     61 H4          -1.7730     6.1990    -1.0050 h1         1 DBG       0.147700
     62 H2          -1.5170     2.8790    -2.7190 h1         1 DBG       0.052700
     63 HO2         -1.3450     3.2730    -4.9380 ho         1 DBG       0.486000
     64 H3          -2.9920     4.7450    -3.0270 h1         1 DBG       0.038700
     65 HO3         -1.9920     6.8400    -3.3160 ho         1 DBG       0.509000
     66 H1           0.8770     4.7540    -2.7470 h2         1 DBG       0.097700
     67 HN21         5.7680     2.8850    -4.4500 hn         1 DBG       0.477500
     68 HN22         4.5870     4.0660    -4.7400 hn         1 DBG       0.477500
     69 HN1          5.2880     1.0740    -3.1580 hn         1 DBG       0.299500
     70 H8          -0.2970     2.1410    -0.2310 h5         1 DBG       0.120100
     71 H14          3.2930     3.1590     0.4770 ha         1 DBG       0.103000
@<TRIPOS>BOND
     1     1     2 ar  
     2     1     6 ar  
     3     1    48 1   
     4     2     3 ar  
     5     2    49 1   
     6     3     4 ar  
     7     3    50 1   
     8     4     5 ar  
     9     4    51 1   
    10     5     6 ar  
    11     5    52 1   
    12     6     7 1   
    13     7     8 2   
    14     7    12 1   
    15     9    10 1   
    16     9    11 ar  
    17     9    15 ar  
    18    10    53 1   
    19    10    54 1   
    20    11    12 ar  
    21    11    71 1   
    22    12    13 ar  
    23    13    14 ar  
    24    13    55 1   
    25    14    15 ar  
    26    14    56 1   
    27    15    16 1   
    28    16    17 1   
    29    16    57 1   
    30    17    18 1   
    31    17    19 1   
    32    17    20 1   
    33    20    21 1   
    34    20    58 1   
    35    21    22 1   
    36    21    23 1   
    37    21    24 1   
    38    24    25 1   
    39    25    26 1   
    40    25    27 1   
    41    25    28 1   
    42    28    29 1   
    43    29    30 1   
    44    29    59 1   
    45    29    60 1   
    46    30    31 1   
    47    30    34 1   
    48    30    61 1   
    49    31    36 1   
    50    32    33 1   
    51    32    34 1   
    52    32    36 1   
    53    32    62 1   
    54    33    63 1   
    55    34    35 1   
    56    34    64 1   
    57    35    65 1   
    58    36    37 1   
    59    36    66 1   
    60    37    38 1   
    61    37    47 1   
    62    38    39 1   
    63    38    45 2   
    64    39    40 2   
    65    40    41 1   
    66    40    42 1   
    67    41    67 1   
    68    41    68 1   
    69    42    43 1   
    70    42    69 1   
    71    43    44 2   
    72    43    45 1   
    73    45    46 1   
    74    46    47 2   
    75    47    70 1   
@<TRIPOS>SUBSTRUCTURE
     1 DBG         1 TEMP              0 ****  ****    0 ROOT
