@<TRIPOS>MOLECULE
DBG
   71    75     1     0     0
SMALL
No Charge or Current Charge


@<TRIPOS>ATOM
      1 C22          4.2410     6.2880    -3.0220 ca         1 DBG      -0.074500
      2 C21          4.5190     6.9100    -4.2520 ca         1 DBG      -0.143500
      3 C20          5.8460     7.0650    -4.6800 ca         1 DBG      -0.133000
      4 C19          6.8980     6.5920    -3.8800 ca         1 DBG      -0.143500
      5 C18          6.6240     5.9670    -2.6510 ca         1 DBG      -0.074500
      6 C17          5.2930     5.8170    -2.2020 ca         1 DBG      -0.126600
      7 C16          5.0160     5.1060    -0.8930 c          1 DBG       0.604300
      8 O16          5.8090     4.2790    -0.4490 o          1 DBG      -0.621100
      9 C15          1.9170     4.6720     1.3210 ca         1 DBG       0.151000
     10 N15          1.3400     3.6190     2.0220 nv         1 DBG      -0.740000
     11 C14          3.1060     4.4110     0.6160 ca         1 DBG      -0.099000
     12 C13          3.7510     5.4210    -0.1290 ca         1 DBG      -0.295600
     13 C12          3.2160     6.7220    -0.1220 ca         1 DBG      -0.043000
     14 C11          2.0300     6.9980     0.5710 ca         1 DBG      -0.219000
     15 C10          1.3540     5.9880     1.2820 ca         1 DBG       0.452000
     16 N3G          0.1670     6.2680     1.9470 nu         1 DBG      -0.878300
     17 PG          -0.9010     7.4320     1.7060 p5         1 DBG       1.368600
     18 O1G         -0.3010     8.7030     2.1700 o          1 DBG      -0.851500
     19 O2G         -1.3920     7.4140     0.3090 o          1 DBG      -0.851500
     20 N3B         -1.9530     7.0090     2.7980 n7         1 DBG      -1.003600
     21 PB          -3.0260     5.8390     2.7530 p5         1 DBG       1.468700
     22 O1B         -3.4590     5.7630     4.1720 o          1 DBG      -0.871000
     23 O2B         -4.0780     6.2080     1.7720 o          1 DBG      -0.871000
     24 O3A         -2.0420     4.6960     2.3080 os         1 DBG      -0.723800
     25 PA          -2.7250     3.2700     2.1620 p5         1 DBG       1.480800
     26 O1A         -1.6770     2.2270     1.9840 o          1 DBG      -0.874000
     27 O2A         -3.6040     2.8990     3.3090 o          1 DBG      -0.874000
     28 O5          -3.5840     3.4320     0.8050 os         1 DBG      -0.569400
     29 C5          -3.0020     3.3870    -0.5080 c3         1 DBG       0.253600
     30 C4          -2.0590     4.6050    -0.7060 c5         1 DBG       0.105300
     31 O4          -0.6770     4.2660    -0.4040 os         1 DBG      -0.398000
     32 C2          -1.0300     4.1300    -2.7840 c5         1 DBG       0.112300
     33 O2          -0.5190     4.6350    -4.0240 oh         1 DBG      -0.691000
     34 C3          -1.9830     5.1800    -2.1420 c5         1 DBG       0.096300
     35 O3          -1.4150     6.5050    -2.1580 oh         1 DBG      -0.722000
     36 C1           0.0350     3.9950    -1.6380 c5         1 DBG       0.320300
     37 N9           0.7680     2.7350    -1.5270 na         1 DBG      -0.166500
     38 C9           1.9620     2.4190    -2.1270 cc         1 DBG       0.134400
     39 N3           2.7530     3.2090    -2.9380 nc         1 DBG      -0.668100
     40 C23          3.8250     2.5900    -3.3750 cd         1 DBG       0.697800
     41 N2           4.6120     3.2830    -4.1820 nv         1 DBG      -1.041200
     42 N1           4.2010     1.3220    -3.1090 ns         1 DBG      -0.443400
     43 C6           3.4780     0.4730    -2.3240 c          1 DBG       0.529500
     44 O6           3.8410    -0.6770    -2.1100 o          1 DBG      -0.571000
     45 C7           2.2340     1.1110    -1.7990 cd         1 DBG       0.094500
     46 N7           1.2190     0.6000    -0.9990 nd         1 DBG      -0.632000
     47 C8           0.3490     1.5990    -0.8590 cc         1 DBG       0.444400
     48 H22          3.2040     6.1540    -2.7240 ha         1 DBG       0.137500
     49 H21          3.7020     7.2670    -4.8750 ha         1 DBG       0.096500
     50 H20          6.0590     7.5470    -5.6320 ha         1 DBG       0.086000
     51 H19          7.9270     6.7070    -4.2130 ha         1 DBG       0.096500
     52 H18          7.4510     5.6010    -2.0440 ha         1 DBG       0.137500
     53 H151         1.7490     2.6950     1.9530 hn         1 DBG       0.290000
     54 H152         0.3780     3.6820     2.3370 hn         1 DBG       0.290000
     55 H12          3.7180     7.5290    -0.6520 ha         1 DBG       0.074000
     56 H11          1.6410     8.0090     0.5460 ha         1 DBG       0.135000
     57 HNG3        -0.4700     5.4800     1.9630 hn         1 DBG       0.504000
     58 HNB3        -1.3890     6.7540     3.5810 hn         1 DBG       0.441000
     59 H5'1        -2.4660     2.4470    -0.6770 h1         1 DBG       0.000700
     60 H5'2        -3.8050     3.4430    -1.2530 h1         1 DBG       0.000700
     61 H4          -2.4300     5.3770    -0.0320 h1         1 DBG       0.147700
     62 H2          -1.5450     3.1730    -2.9440 h1         1 DBG       0.052700
     63 HO2         -0.5740     5.6150    -3.9150 ho         1 DBG       0.486000
     64 H3          -2.9700     5.1830    -2.6260 h1         1 DBG       0.038700
     65 HO3         -1.4230     6.8510    -1.2040 ho         1 DBG       0.509000
     66 H1           0.8020     4.7690    -1.7680 h2         1 DBG       0.097700
     67 HN21         5.5830     3.0060    -4.2300 hn         1 DBG       0.477500
     68 HN22         4.4430     4.2810    -4.1750 hn         1 DBG       0.477500
     69 HN1          5.0410     0.9490    -3.5190 hn         1 DBG       0.299500
     70 H8          -0.5690     1.5660    -0.2850 h5         1 DBG       0.120100
     71 H14          3.5230     3.4070     0.6330 ha         1 DBG       0.103000
@<TRIPOS>BOND
     1     1     2 ar  
     2     1     6 ar  
     3     1    48 1   
     4     2     3 ar  
     5     2    49 1   
     6     3     4 ar  
     7     3    50 1   
     8     4     5 ar  
     9     4    51 1   
    10     5     6 ar  
    11     5    52 1   
    12     6     7 1   
    13     7     8 2   
    14     7    12 1   
    15     9    10 1   
    16     9    11 ar  
    17     9    15 ar  
    18    10    53 1   
    19    10    54 1   
    20    11    12 ar  
    21    11    71 1   
    22    12    13 ar  
    23    13    14 ar  
    24    13    55 1   
    25    14    15 ar  
    26    14    56 1   
    27    15    16 1   
    28    16    17 1   
    29    16    57 1   
    30    17    18 1   
    31    17    19 1   
    32    17    20 1   
    33    20    21 1   
    34    20    58 1   
    35    21    22 1   
    36    21    23 1   
    37    21    24 1   
    38    24    25 1   
    39    25    26 1   
    40    25    27 1   
    41    25    28 1   
    42    28    29 1   
    43    29    30 1   
    44    29    59 1   
    45    29    60 1   
    46    30    31 1   
    47    30    34 1   
    48    30    61 1   
    49    31    36 1   
    50    32    33 1   
    51    32    34 1   
    52    32    36 1   
    53    32    62 1   
    54    33    63 1   
    55    34    35 1   
    56    34    64 1   
    57    35    65 1   
    58    36    37 1   
    59    36    66 1   
    60    37    38 1   
    61    37    47 1   
    62    38    39 1   
    63    38    45 2   
    64    39    40 2   
    65    40    41 1   
    66    40    42 1   
    67    41    67 1   
    68    41    68 1   
    69    42    43 1   
    70    42    69 1   
    71    43    44 2   
    72    43    45 1   
    73    45    46 1   
    74    46    47 2   
    75    47    70 1   
@<TRIPOS>SUBSTRUCTURE
     1 DBG         1 TEMP              0 ****  ****    0 ROOT
