@<TRIPOS>MOLECULE
DBH
   16    16     1     0     0
SMALL
No Charge or Current Charge


@<TRIPOS>ATOM
      1 O17         -0.6990    -0.0360     2.8870 o          1 DBH      -0.699500
      2 C21          0.1600     0.0660     2.0250 c          1 DBH       0.723600
      3 O9           1.3550     0.1440     2.2770 o          1 DBH      -0.699500
      4 C18         -0.2680     0.0990     0.5700 ca         1 DBH      -0.251600
      5 C15         -1.6420     0.0120     0.2380 ca         1 DBH      -0.058000
      6 C12         -2.0630     0.0400    -1.1020 ca         1 DBH      -0.180000
      7 C3           0.6740     0.2160    -0.4830 ca         1 DBH       0.194100
      8 O3           2.0050     0.3020    -0.1870 oh         1 DBH      -0.614100
      9 C6           0.2420     0.2440    -1.8360 ca         1 DBH       0.029100
     10 C9          -1.1250     0.1560    -2.1380 ca         1 DBH      -0.175000
     11 O6           1.1350     0.3570    -2.8710 oh         1 DBH      -0.528100
     12 HC15        -2.3950    -0.0790     1.0190 ha         1 DBH       0.121000
     13 HC12        -3.1230    -0.0280    -1.3360 ha         1 DBH       0.086000
     14 HO3          2.0350     0.2590     0.8120 ho         1 DBH       0.544000
     15 HC9         -1.4660     0.1770    -3.1700 ha         1 DBH       0.080000
     16 HO6          0.6350     0.3570    -3.7150 ho         1 DBH       0.428000
@<TRIPOS>BOND
     1     1     2 1   
     2     2     3 1   
     3     2     4 1   
     4     4     5 ar  
     5     4     7 ar  
     6     5     6 ar  
     7     5    12 1   
     8     6    10 ar  
     9     6    13 1   
    10     7     8 1   
    11     7     9 ar  
    12     8    14 1   
    13     9    10 ar  
    14     9    11 1   
    15    10    15 1   
    16    11    16 1   
@<TRIPOS>SUBSTRUCTURE
     1 DBH         1 TEMP              0 ****  ****    0 ROOT
