@<TRIPOS>MOLECULE
DBH
   16    16     1     0     0
SMALL
bcc


@<TRIPOS>ATOM
      1 O17         -0.6720    -0.0310     2.8810 o          1 DBH      -0.804800
      2 C21          0.1620     0.0680     1.9780 c          1 DBH       0.934200
      3 O9           1.4200     0.1510     2.1510 o          1 DBH      -0.804800
      4 C18         -0.3040     0.0970     0.5440 ca         1 DBH      -0.251600
      5 C15         -1.6620     0.0090     0.2290 ca         1 DBH      -0.076000
      6 C12         -2.0810     0.0380    -1.0860 ca         1 DBH      -0.198000
      7 C3           0.6420     0.2150    -0.4830 ca         1 DBH       0.194100
      8 O3           1.9470     0.3020    -0.2320 oh         1 DBH      -0.575100
      9 C6           0.2080     0.2420    -1.8220 ca         1 DBH       0.029100
     10 C9          -1.1410     0.1550    -2.1110 ca         1 DBH      -0.193000
     11 O6           1.1720     0.3530    -2.7660 oh         1 DBH      -0.489100
     12 HC15        -2.3820    -0.0800     1.0310 ha         1 DBH       0.139000
     13 HC12        -3.1330    -0.0290    -1.3300 ha         1 DBH       0.104000
     14 HO3          1.9830     0.2560     0.7930 ho         1 DBH       0.505000
     15 HC9         -1.4680     0.1760    -3.1450 ha         1 DBH       0.098000
     16 HO6          0.7700     0.3620    -3.6410 ho         1 DBH       0.389000
@<TRIPOS>BOND
     1     1     2 1   
     2     2     3 1   
     3     2     4 1   
     4     4     5 ar  
     5     4     7 ar  
     6     5     6 ar  
     7     5    12 1   
     8     6    10 ar  
     9     6    13 1   
    10     7     8 1   
    11     7     9 ar  
    12     8    14 1   
    13     9    10 ar  
    14     9    11 1   
    15    10    15 1   
    16    11    16 1   
@<TRIPOS>SUBSTRUCTURE
     1 DBH         1 TEMP              0 ****  ****    0 ROOT
