@<TRIPOS>MOLECULE
DBJ
   22    23     1     0     0
SMALL
abcg2


@<TRIPOS>ATOM
      1 O1          -3.4660    -0.9550     0.0560 oh         1 DBJ      -0.663000
      2 C2          -2.1140    -1.3330     0.0530 c3         1 DBJ       0.215900
      3 C3          -1.2430    -0.1050     0.0220 ca         1 DBJ      -0.078300
      4 C4           0.1420    -0.2740     0.0030 ca         1 DBJ       0.051100
      5 O5           0.6250    -1.5420     0.0050 os         1 DBJ      -0.338100
      6 C5           1.9940    -1.6510    -0.3540 c6         1 DBJ       0.118600
      7 C7           2.8000    -0.5920     0.3560 c6         1 DBJ       0.118600
      8 O8           2.3410     0.6990    -0.0160 os         1 DBJ      -0.331100
      9 C9           0.9930     0.8340    -0.0170 ca         1 DBJ       0.056100
     10 C10          0.4560     2.1150    -0.0380 ca         1 DBJ      -0.106000
     11 C11         -0.9180     2.2850    -0.0300 ca         1 DBJ      -0.114000
     12 C12         -1.7640     1.1830     0.0100 ca         1 DBJ      -0.086000
     13 H1          -3.9970    -1.7560     0.0850 ho         1 DBJ       0.446000
     14 H2          -1.8640    -1.9280     0.9420 h1         1 DBJ       0.032700
     15 H3          -1.8770    -1.9650    -0.8130 h1         1 DBJ       0.032700
     16 H4           2.3250    -2.6460    -0.0620 h1         1 DBJ       0.066200
     17 H5           2.1070    -1.5530    -1.4400 h1         1 DBJ       0.066200
     18 H6           2.7260    -0.7200     1.4410 h1         1 DBJ       0.066200
     19 H7           3.8490    -0.6560     0.0730 h1         1 DBJ       0.066200
     20 H8           1.1240     2.9670    -0.0580 ha         1 DBJ       0.127000
     21 H9          -1.3340     3.2840    -0.0450 ha         1 DBJ       0.118000
     22 H10         -2.8340     1.3300     0.0230 ha         1 DBJ       0.136000
@<TRIPOS>BOND
     1     1     2 1   
     2     1    13 1   
     3     2     3 1   
     4     2    14 1   
     5     2    15 1   
     6     3     4 ar  
     7     3    12 ar  
     8     4     5 1   
     9     4     9 ar  
    10     5     6 1   
    11     6     7 1   
    12     6    16 1   
    13     6    17 1   
    14     7     8 1   
    15     7    18 1   
    16     7    19 1   
    17     8     9 1   
    18     9    10 ar  
    19    10    11 ar  
    20    10    20 1   
    21    11    12 ar  
    22    11    21 1   
    23    12    22 1   
@<TRIPOS>SUBSTRUCTURE
     1 DBJ         1 TEMP              0 ****  ****    0 ROOT
