@<TRIPOS>MOLECULE
DBJ
   22    23     1     0     0
SMALL
No Charge or Current Charge


@<TRIPOS>ATOM
      1 O1          -2.9890    -1.3510     1.0200 oh         1 DBJ      -0.663000
      2 C2          -2.2540    -1.2540    -0.2080 c3         1 DBJ       0.215900
      3 C3          -1.2830    -0.0760    -0.1560 ca         1 DBJ      -0.078300
      4 C4           0.1140    -0.2700    -0.0500 ca         1 DBJ       0.051100
      5 O5           0.6330    -1.5520     0.0040 os         1 DBJ      -0.338100
      6 C5           2.0520    -1.7130    -0.2150 c6         1 DBJ       0.118600
      7 C7           2.8240    -0.6150     0.5450 c6         1 DBJ       0.118600
      8 O8           2.3480     0.6860     0.1400 os         1 DBJ      -0.331100
      9 C9           0.9830     0.8520     0.0030 ca         1 DBJ       0.056100
     10 C10          0.4630     2.1520    -0.0860 ca         1 DBJ      -0.106000
     11 C11         -0.9230     2.3450    -0.2050 ca         1 DBJ      -0.114000
     12 C12         -1.7900     1.2380    -0.2340 ca         1 DBJ      -0.086000
     13 H1          -3.5820    -2.1310     0.9310 ho         1 DBJ       0.446000
     14 H2          -1.7130    -2.1890    -0.4020 h1         1 DBJ       0.032700
     15 H3          -2.9430    -1.1030    -1.0490 h1         1 DBJ       0.032700
     16 H4           2.3620    -2.7110     0.1220 h1         1 DBJ       0.066200
     17 H5           2.2590    -1.6300    -1.2910 h1         1 DBJ       0.066200
     18 H6           2.6640    -0.7340     1.6260 h1         1 DBJ       0.066200
     19 H7           3.9020    -0.6880     0.3450 h1         1 DBJ       0.066200
     20 H8           1.1330     3.0090    -0.0550 ha         1 DBJ       0.127000
     21 H9          -1.3280     3.3530    -0.2680 ha         1 DBJ       0.118000
     22 H10         -2.8620     1.4000    -0.3200 ha         1 DBJ       0.136000
@<TRIPOS>BOND
     1     1     2 1   
     2     1    13 1   
     3     2     3 1   
     4     2    14 1   
     5     2    15 1   
     6     3     4 ar  
     7     3    12 ar  
     8     4     5 1   
     9     4     9 ar  
    10     5     6 1   
    11     6     7 1   
    12     6    16 1   
    13     6    17 1   
    14     7     8 1   
    15     7    18 1   
    16     7    19 1   
    17     8     9 1   
    18     9    10 ar  
    19    10    11 ar  
    20    10    20 1   
    21    11    12 ar  
    22    11    21 1   
    23    12    22 1   
@<TRIPOS>SUBSTRUCTURE
     1 DBJ         1 TEMP              0 ****  ****    0 ROOT
