@<TRIPOS>MOLECULE
DBK
   96    98     1     0     0
SMALL
bcc


@<TRIPOS>ATOM
      1 C1           3.6780     0.6520     0.8770 c5         1 DBK      -0.037500
      2 C2           4.7430    -0.4640     0.8270 c5         1 DBK      -0.097400
      3 C3           4.9150    -0.8510    -0.6440 c5         1 DBK       0.182300
      4 O3           4.5640    -2.2190    -0.9070 os         1 DBK      -0.418900
      5 C4           3.9330    -0.0000    -1.3930 c2         1 DBK      -0.080400
      6 C5           3.2850     0.8270    -0.5700 c2         1 DBK      -0.111400
      7 O5           2.7090     2.5650    -2.1500 os         1 DBK      -0.383900
      8 C6           2.2260     1.7780    -1.0380 c5         1 DBK       0.220300
      9 O6           2.8960     3.4760     0.4410 oh         1 DBK      -0.572800
     10 C7           1.7430     2.8490    -0.0570 c5         1 DBK       0.128800
     11 O7          -0.1810     1.5380     0.5920 os         1 DBK      -0.420900
     12 C8           0.8790     2.3360     1.0990 c3         1 DBK       0.150100
     13 C9           1.6430     1.5620     2.1720 c3         1 DBK      -0.104400
     14 C10          2.4730     0.3270     1.7920 c3         1 DBK       0.204800
     15 O10          4.3340     1.3760     3.6970 o          1 DBK      -0.543000
     16 C11          1.0800     3.8390    -1.0450 c5         1 DBK       0.025800
     17 O11         -0.1110     3.2680    -1.5320 oh         1 DBK      -0.589800
     18 C12          2.1080     3.7530    -2.1800 c          1 DBK       0.714600
     19 O12          2.3430     4.5670    -3.0280 o          1 DBK      -0.559500
     20 C21          5.4300    -3.1670    -0.5600 c          1 DBK       0.647300
     21 C22          4.9170    -4.5180    -0.8880 ce         1 DBK      -0.181400
     22 C23          3.5070    -4.6380    -1.3960 c3         1 DBK      -0.038900
     23 C24          5.6900    -5.6020    -0.7290 c2         1 DBK      -0.081200
     24 C25          7.1030    -5.7050    -0.2530 c3         1 DBK      -0.065900
     25 C26          3.8070    -0.1310    -2.8740 c3         1 DBK      -0.044900
     26 C27         -1.4440     1.9600     0.6870 c          1 DBK       0.662100
     27 C28         -2.3780     1.0000     0.0090 c3         1 DBK      -0.136400
     28 C31          1.6300    -0.8000     1.2070 c3         1 DBK      -0.086100
     29 C33          4.0940    -0.6000     5.0340 c3         1 DBK      -0.158100
     30 C34          0.8620     5.2470    -0.5360 c3         1 DBK      -0.119100
     31 C35         -3.8380     1.2070     0.3790 c3         1 DBK      -0.068400
     32 C36         -4.7480     0.1750    -0.2760 c3         1 DBK      -0.075400
     33 C37         -6.2120     0.3560     0.1050 c3         1 DBK      -0.074400
     34 C38         -7.1290    -0.6960    -0.5040 c3         1 DBK      -0.074400
     35 C39         -8.5910    -0.5130    -0.1150 c3         1 DBK      -0.074400
     36 C40         -9.5090    -1.5790    -0.6990 c3         1 DBK      -0.074400
     37 C41        -10.9710    -1.3920    -0.3120 c3         1 DBK      -0.074400
     38 C42        -11.8900    -2.4630    -0.8870 c3         1 DBK      -0.075400
     39 C43        -13.3530    -2.2720    -0.5070 c3         1 DBK      -0.074400
     40 C44        -14.2600    -3.3480    -1.0900 c3         1 DBK      -0.089100
     41 H1           4.1370     1.5700     1.2370 hc         1 DBK       0.103700
     42 H2           5.6840    -0.1110     1.2450 hc         1 DBK       0.068200
     43 H2A          4.4520    -1.3360     1.4130 hc         1 DBK       0.068200
     44 H3           5.9360    -0.6820    -0.9990 h1         1 DBK       0.079700
     45 H6           1.3680     1.2020    -1.3960 h1         1 DBK       0.093700
     46 HO6          2.6550     4.1670     1.0690 ho         1 DBK       0.417000
     47 H8           0.4660     3.2090     1.6130 h1         1 DBK       0.072700
     48 H9           2.2880     2.2800     2.6770 hc         1 DBK       0.070200
     49 H9A          0.8990     1.2570     2.9140 hc         1 DBK       0.070200
     50 HO11        -0.5520     3.9040    -2.1080 ho         1 DBK       0.427000
     51 H23          3.3660    -4.1140    -2.3430 hc         1 DBK       0.044367
     52 H23A         3.2520    -5.6850    -1.5560 hc         1 DBK       0.044367
     53 H23B         2.7850    -4.2240    -0.6910 hc         1 DBK       0.044367
     54 H24          5.2250    -6.5480    -0.9850 ha         1 DBK       0.119000
     55 H25          7.4630    -6.7240    -0.3800 hc         1 DBK       0.054367
     56 H25A         7.7760    -5.0360    -0.7880 hc         1 DBK       0.054367
     57 H25B         7.1900    -5.4550     0.8060 hc         1 DBK       0.054367
     58 H26          3.9500    -1.1650    -3.1850 hc         1 DBK       0.050700
     59 H26A         2.8370     0.1930    -3.2450 hc         1 DBK       0.050700
     60 H26B         4.5700     0.4630    -3.3830 hc         1 DBK       0.050700
     61 H28         -2.2350     1.1180    -1.0710 hc         1 DBK       0.074200
     62 H28A        -2.0620    -0.0210     0.2380 hc         1 DBK       0.074200
     63 H31          2.2350    -1.6960     1.0620 hc         1 DBK       0.051367
     64 H31A         0.8000    -1.0520     1.8670 hc         1 DBK       0.051367
     65 H31B         1.2130    -0.5370     0.2390 hc         1 DBK       0.051367
     66 H33          3.1700    -0.9640     5.4820 hc         1 DBK       0.069033
     67 H33A         4.6570    -1.4730     4.6970 hc         1 DBK       0.069033
     68 H33B         4.6800    -0.0780     5.7850 hc         1 DBK       0.069033
     69 H34          1.7840     5.7370    -0.2280 hc         1 DBK       0.060367
     70 H34A         0.4330     5.8640    -1.3280 hc         1 DBK       0.060367
     71 H34B         0.1630     5.2510     0.3010 hc         1 DBK       0.060367
     72 H35         -3.9530     1.1480     1.4650 hc         1 DBK       0.053700
     73 H35A        -4.1580     2.2110     0.0880 hc         1 DBK       0.053700
     74 H36         -4.6430     0.2310    -1.3650 hc         1 DBK       0.038200
     75 H36A        -4.4210    -0.8310     0.0110 hc         1 DBK       0.038200
     76 H37         -6.3060     0.3290     1.1970 hc         1 DBK       0.040200
     77 H37A        -6.5460     1.3530    -0.2030 hc         1 DBK       0.040200
     78 H38         -7.0360    -0.6730    -1.5950 hc         1 DBK       0.037200
     79 H38A        -6.7930    -1.6920    -0.1920 hc         1 DBK       0.037200
     80 H39         -8.6790    -0.5200     0.9770 hc         1 DBK       0.037700
     81 H39A        -8.9310     0.4760    -0.4400 hc         1 DBK       0.037700
     82 H40         -9.4200    -1.5780    -1.7910 hc         1 DBK       0.037200
     83 H40A        -9.1710    -2.5680    -0.3690 hc         1 DBK       0.037200
     84 H41        -11.0600    -1.3870     0.7800 hc         1 DBK       0.036700
     85 H41A       -11.3110    -0.4050    -0.6470 hc         1 DBK       0.036700
     86 H42        -11.7980    -2.4720    -1.9790 hc         1 DBK       0.036700
     87 H42A       -11.5530    -3.4490    -0.5480 hc         1 DBK       0.036700
     88 H43        -13.4460    -2.2660     0.5830 hc         1 DBK       0.036700
     89 H43A       -13.6900    -1.2880    -0.8460 hc         1 DBK       0.036700
     90 H44        -15.3030    -3.1900    -0.8110 hc         1 DBK       0.031367
     91 H44A       -14.2080    -3.3580    -2.1800 hc         1 DBK       0.031367
     92 H44B       -13.9710    -4.3400    -0.7390 hc         1 DBK       0.031367
     93 O9           2.9330    -0.2590     3.0450 os         1 DBK      -0.449900
     94 C32          3.8130     0.3020     3.8660 c          1 DBK       0.652100
     95 O4           6.4920    -2.9240    -0.0340 o          1 DBK      -0.545000
     96 O8          -1.7730     2.9690     1.2540 o          1 DBK      -0.539000
@<TRIPOS>BOND
     1     1     2 1   
     2     1     6 1   
     3     1    14 1   
     4     1    41 1   
     5     2     3 1   
     6     2    42 1   
     7     2    43 1   
     8     3     4 1   
     9     3     5 1   
    10     3    44 1   
    11     4    20 1   
    12     5     6 2   
    13     5    25 1   
    14     6     8 1   
    15     7     8 1   
    16     7    18 1   
    17     8    10 1   
    18     8    45 1   
    19     9    10 1   
    20     9    46 1   
    21    10    12 1   
    22    10    16 1   
    23    11    12 1   
    24    11    26 1   
    25    12    13 1   
    26    12    47 1   
    27    13    14 1   
    28    13    48 1   
    29    13    49 1   
    30    14    28 1   
    31    14    93 1   
    32    15    94 2   
    33    16    17 1   
    34    16    18 1   
    35    16    30 1   
    36    17    50 1   
    37    18    19 2   
    38    20    21 1   
    39    20    95 2   
    40    21    22 1   
    41    21    23 2   
    42    22    51 1   
    43    22    52 1   
    44    22    53 1   
    45    23    24 1   
    46    23    54 1   
    47    24    55 1   
    48    24    56 1   
    49    24    57 1   
    50    25    58 1   
    51    25    59 1   
    52    25    60 1   
    53    26    27 1   
    54    26    96 2   
    55    27    31 1   
    56    27    61 1   
    57    27    62 1   
    58    28    63 1   
    59    28    64 1   
    60    28    65 1   
    61    29    66 1   
    62    29    67 1   
    63    29    68 1   
    64    29    94 1   
    65    30    69 1   
    66    30    70 1   
    67    30    71 1   
    68    31    32 1   
    69    31    72 1   
    70    31    73 1   
    71    32    33 1   
    72    32    74 1   
    73    32    75 1   
    74    33    34 1   
    75    33    76 1   
    76    33    77 1   
    77    34    35 1   
    78    34    78 1   
    79    34    79 1   
    80    35    36 1   
    81    35    80 1   
    82    35    81 1   
    83    36    37 1   
    84    36    82 1   
    85    36    83 1   
    86    37    38 1   
    87    37    84 1   
    88    37    85 1   
    89    38    39 1   
    90    38    86 1   
    91    38    87 1   
    92    39    40 1   
    93    39    88 1   
    94    39    89 1   
    95    40    90 1   
    96    40    91 1   
    97    40    92 1   
    98    93    94 1   
@<TRIPOS>SUBSTRUCTURE
     1 DBK         1 TEMP              0 ****  ****    0 ROOT
