@<TRIPOS>MOLECULE
DBK
   96    98     1     0     0
SMALL
No Charge or Current Charge


@<TRIPOS>ATOM
      1 C1           3.6300     0.8780     0.2670 c5         1 DBK      -0.037500
      2 C2           4.7510    -0.1090    -0.2490 c5         1 DBK      -0.097400
      3 C3           4.1430    -0.8120    -1.5140 c5         1 DBK       0.205500
      4 O3           3.6260    -2.1140    -1.1380 os         1 DBK      -0.442100
      5 C4           2.9460     0.0270    -1.8940 c2         1 DBK      -0.080400
      6 C5           2.6800     0.9420    -0.9550 c2         1 DBK      -0.111400
      7 O5           1.4840     2.6970    -2.1720 os         1 DBK      -0.407100
      8 C6           1.4320     1.8820    -0.9780 c5         1 DBK       0.243500
      9 O6           2.4690     3.7600     0.3440 oh         1 DBK      -0.635000
     10 C7           1.2900     2.9350     0.1880 c5         1 DBK       0.152000
     11 O7          -0.0750     1.2870     1.4010 os         1 DBK      -0.444100
     12 C8           0.9440     2.2910     1.5800 c3         1 DBK       0.173300
     13 C9           2.1420     1.6380     2.3360 c3         1 DBK      -0.104400
     14 C10          2.9390     0.4830     1.6320 c3         1 DBK       0.228000
     15 O10          5.2620     1.9640     2.5850 o          1 DBK      -0.494000
     16 C11          0.1590     3.7950    -0.5040 c5         1 DBK       0.049000
     17 O11         -1.1470     3.1700    -0.4880 oh         1 DBK      -0.652000
     18 C12          0.7100     3.8070    -1.9750 c          1 DBK       0.639100
     19 O12          0.5290     4.6590    -2.8350 o          1 DBK      -0.484000
     20 C21          4.5690    -3.1010    -0.9610 c          1 DBK       0.598300
     21 C22          3.9330    -4.4160    -0.5530 ce         1 DBK      -0.181400
     22 C23          2.4070    -4.4520    -0.4650 c3         1 DBK      -0.038900
     23 C24          4.6440    -5.5450    -0.2850 c2         1 DBK      -0.131200
     24 C25          6.1480    -5.7400    -0.3140 c3         1 DBK      -0.065900
     25 C26          2.1540    -0.2780    -3.1540 c3         1 DBK      -0.044900
     26 C27         -0.9100     0.9760     2.4420 c          1 DBK       0.613100
     27 C28         -1.8880    -0.1360     2.0610 c3         1 DBK      -0.136400
     28 C31          2.0710    -0.7960     1.4910 c3         1 DBK      -0.086100
     29 C33          5.9090     0.0760     3.9430 c3         1 DBK      -0.158100
     30 C34         -0.0520     5.2240     0.0730 c3         1 DBK      -0.119100
     31 C35         -3.2180     0.4470     1.5300 c3         1 DBK      -0.068400
     32 C36         -4.2290    -0.6430     1.1110 c3         1 DBK      -0.075400
     33 C37         -5.5560    -0.0610     0.5760 c3         1 DBK      -0.074400
     34 C38         -6.5670    -1.1500     0.1570 c3         1 DBK      -0.074400
     35 C39         -7.8940    -0.5690    -0.3790 c3         1 DBK      -0.074400
     36 C40         -8.9050    -1.6580    -0.7990 c3         1 DBK      -0.074400
     37 C41        -10.2320    -1.0770    -1.3340 c3         1 DBK      -0.074400
     38 C42        -11.2430    -2.1660    -1.7540 c3         1 DBK      -0.075400
     39 C43        -12.5700    -1.5850    -2.2900 c3         1 DBK      -0.074400
     40 C44        -13.5790    -2.6720    -2.7090 c3         1 DBK      -0.089100
     41 H1           4.0860     1.8600     0.4090 hc         1 DBK       0.103700
     42 H2           5.6390     0.4600    -0.5430 hc         1 DBK       0.068200
     43 H2A          5.0910    -0.8230     0.5080 hc         1 DBK       0.068200
     44 H3           4.8610    -0.9080    -2.3420 h1         1 DBK       0.079700
     45 H6           0.5230     1.2660    -1.0360 h1         1 DBK       0.093700
     46 HO6          2.2770     4.4400     1.0260 ho         1 DBK       0.456000
     47 H8           0.5560     3.1060     2.2060 h1         1 DBK       0.072700
     48 H9           2.8270     2.4510     2.5940 hc         1 DBK       0.070200
     49 H9A          1.7830     1.2680     3.3030 hc         1 DBK       0.070200
     50 HO11        -1.7690     3.7510    -0.9820 ho         1 DBK       0.466000
     51 H23          1.9440    -4.1200    -1.4020 hc         1 DBK       0.044367
     52 H23A         2.0280    -5.4610    -0.2640 hc         1 DBK       0.044367
     53 H23B         2.0380    -3.8050     0.3380 hc         1 DBK       0.044367
     54 H24          4.1130    -6.4560    -0.0030 ha         1 DBK       0.169000
     55 H25          6.4180    -6.7630    -0.0290 hc         1 DBK       0.054367
     56 H25A         6.5530    -5.5610    -1.3180 hc         1 DBK       0.054367
     57 H25B         6.6510    -5.0600     0.3840 hc         1 DBK       0.054367
     58 H26          1.8290    -1.3260    -3.1640 hc         1 DBK       0.050700
     59 H26A         1.2550     0.3380    -3.2530 hc         1 DBK       0.050700
     60 H26B         2.7680    -0.1140    -4.0470 hc         1 DBK       0.050700
     61 H28         -1.4480    -0.7360     1.2560 hc         1 DBK       0.074200
     62 H28A        -2.0910    -0.7550     2.9420 hc         1 DBK       0.074200
     63 H31          2.7030    -1.6680     1.2900 hc         1 DBK       0.051367
     64 H31A         1.5200    -0.9990     2.4160 hc         1 DBK       0.051367
     65 H31B         1.3470    -0.7170     0.6740 hc         1 DBK       0.051367
     66 H33          5.2950    -0.2580     4.7860 hc         1 DBK       0.069033
     67 H33A         6.2130    -0.8730     3.4880 hc         1 DBK       0.069033
     68 H33B         6.7700     0.6660     4.2720 hc         1 DBK       0.069033
     69 H34          0.8550     5.8360    -0.0090 hc         1 DBK       0.060367
     70 H34A        -0.8430     5.7600    -0.4660 hc         1 DBK       0.060367
     71 H34B        -0.3390     5.1890     1.1310 hc         1 DBK       0.060367
     72 H35         -3.6690     1.0820     2.3030 hc         1 DBK       0.053700
     73 H35A        -3.0080     1.0940     0.6680 hc         1 DBK       0.053700
     74 H36         -3.7770    -1.2770     0.3380 hc         1 DBK       0.038200
     75 H36A        -4.4400    -1.2890     1.9730 hc         1 DBK       0.038200
     76 H37         -6.0090     0.5720     1.3490 hc         1 DBK       0.040200
     77 H37A        -5.3450     0.5850    -0.2850 hc         1 DBK       0.040200
     78 H38         -6.1140    -1.7840    -0.6160 hc         1 DBK       0.037200
     79 H38A        -6.7790    -1.7970     1.0180 hc         1 DBK       0.037200
     80 H39         -8.3480     0.0650     0.3940 hc         1 DBK       0.037700
     81 H39A        -7.6830     0.0770    -1.2400 hc         1 DBK       0.037700
     82 H40         -8.4520    -2.2920    -1.5710 hc         1 DBK       0.037200
     83 H40A        -9.1170    -2.3050     0.0620 hc         1 DBK       0.037200
     84 H41        -10.6850    -0.4430    -0.5620 hc         1 DBK       0.036700
     85 H41A       -10.0210    -0.4310    -2.1960 hc         1 DBK       0.036700
     86 H42        -10.7900    -2.8000    -2.5270 hc         1 DBK       0.036700
     87 H42A       -11.4550    -2.8130    -0.8930 hc         1 DBK       0.036700
     88 H43        -13.0280    -0.9530    -1.5190 hc         1 DBK       0.036700
     89 H43A       -12.3630    -0.9400    -3.1530 hc         1 DBK       0.036700
     90 H44        -14.5030    -2.2130    -3.0810 hc         1 DBK       0.031367
     91 H44A       -13.1640    -3.3010    -3.5050 hc         1 DBK       0.031367
     92 H44B       -13.8350    -3.3140    -1.8570 hc         1 DBK       0.031367
     93 O9           3.9560     0.0480     2.5740 os         1 DBK      -0.473100
     94 C32          5.0240     0.8260     2.9600 c          1 DBK       0.603100
     95 O4           5.7720    -2.9350    -1.1210 o          1 DBK      -0.496000
     96 O8          -0.8950     1.5210     3.5370 o          1 DBK      -0.490000
@<TRIPOS>BOND
     1     1     2 1   
     2     1     6 1   
     3     1    14 1   
     4     1    41 1   
     5     2     3 1   
     6     2    42 1   
     7     2    43 1   
     8     3     4 1   
     9     3     5 1   
    10     3    44 1   
    11     4    20 1   
    12     5     6 2   
    13     5    25 1   
    14     6     8 1   
    15     7     8 1   
    16     7    18 1   
    17     8    10 1   
    18     8    45 1   
    19     9    10 1   
    20     9    46 1   
    21    10    12 1   
    22    10    16 1   
    23    11    12 1   
    24    11    26 1   
    25    12    13 1   
    26    12    47 1   
    27    13    14 1   
    28    13    48 1   
    29    13    49 1   
    30    14    28 1   
    31    14    93 1   
    32    15    94 2   
    33    16    17 1   
    34    16    18 1   
    35    16    30 1   
    36    17    50 1   
    37    18    19 2   
    38    20    21 1   
    39    20    95 2   
    40    21    22 1   
    41    21    23 2   
    42    22    51 1   
    43    22    52 1   
    44    22    53 1   
    45    23    24 1   
    46    23    54 1   
    47    24    55 1   
    48    24    56 1   
    49    24    57 1   
    50    25    58 1   
    51    25    59 1   
    52    25    60 1   
    53    26    27 1   
    54    26    96 2   
    55    27    31 1   
    56    27    61 1   
    57    27    62 1   
    58    28    63 1   
    59    28    64 1   
    60    28    65 1   
    61    29    66 1   
    62    29    67 1   
    63    29    68 1   
    64    29    94 1   
    65    30    69 1   
    66    30    70 1   
    67    30    71 1   
    68    31    32 1   
    69    31    72 1   
    70    31    73 1   
    71    32    33 1   
    72    32    74 1   
    73    32    75 1   
    74    33    34 1   
    75    33    76 1   
    76    33    77 1   
    77    34    35 1   
    78    34    78 1   
    79    34    79 1   
    80    35    36 1   
    81    35    80 1   
    82    35    81 1   
    83    36    37 1   
    84    36    82 1   
    85    36    83 1   
    86    37    38 1   
    87    37    84 1   
    88    37    85 1   
    89    38    39 1   
    90    38    86 1   
    91    38    87 1   
    92    39    40 1   
    93    39    88 1   
    94    39    89 1   
    95    40    90 1   
    96    40    91 1   
    97    40    92 1   
    98    93    94 1   
@<TRIPOS>SUBSTRUCTURE
     1 DBK         1 TEMP              0 ****  ****    0 ROOT
