@<TRIPOS>MOLECULE
DBL
  155   163     1     0     0
SMALL
bcc


@<TRIPOS>ATOM
      1 C1           2.8050   -15.9660   -11.0650 c3         1 DBL       0.146100
      2 N2           2.3420   -16.2980    -9.7330 n7         1 DBL      -0.799200
      3 C3           2.8280   -15.4170    -8.7040 c3         1 DBL       0.111500
      4 C4           2.3170   -13.9820    -8.8750 c          1 DBL       0.621100
      5 O5           1.1650   -13.7460    -9.2070 o          1 DBL      -0.613100
      6 C6           2.4220   -15.8750    -7.2990 c3         1 DBL      -0.065400
      7 C7           2.9180   -17.2580    -6.8480 c3         1 DBL      -0.046700
      8 C8           4.4020   -17.4670    -7.1310 c3         1 DBL      -0.088100
      9 C9           2.0880   -18.4140    -7.3990 c3         1 DBL      -0.088100
     10 N10          3.2050   -13.0060    -8.6030 ns         1 DBL      -0.573900
     11 CL1          3.6620    -5.8730   -10.3670 cl         1 DBL      -0.084400
     12 CL2         -2.2860    -1.5930    -4.5530 cl         1 DBL      -0.082400
     13 C11          2.8330   -11.6170    -8.5750 c3         1 DBL      -0.012300
     14 C12          3.8010   -10.8770    -7.6570 c          1 DBL       0.669100
     15 O13          4.9240   -11.2960    -7.4310 o          1 DBL      -0.603100
     16 C14          2.8610   -11.0210   -10.0140 c3         1 DBL       0.192400
     17 O15          4.1560   -11.0290   -10.5350 oh         1 DBL      -0.588800
     18 C16          2.3210    -9.6150   -10.0280 ca         1 DBL      -0.086300
     19 C17          3.1430    -8.5190   -10.2530 ca         1 DBL      -0.087000
     20 C18          0.9720    -9.4060    -9.7530 ca         1 DBL      -0.124000
     21 C19          2.6250    -7.2360   -10.1560 ca         1 DBL      -0.002600
     22 C20          0.4590    -8.1240    -9.6490 ca         1 DBL      -0.124000
     23 C21          1.2880    -7.0290    -9.8410 ca         1 DBL       0.108100
     24 O22          0.7910    -5.7640    -9.7150 os         1 DBL      -0.220200
     25 N24          3.3220    -9.7310    -7.1550 ns         1 DBL      -0.556900
     26 C25          4.1110    -8.8240    -6.3460 c3         1 DBL       0.052700
     27 C26          3.1030    -7.8990    -5.6470 c          1 DBL       0.659100
     28 O27          2.0450    -8.3460    -5.2400 o          1 DBL      -0.600100
     29 C28          5.1780    -8.1220    -7.1890 c3         1 DBL      -0.197400
     30 C29          6.2580    -7.4580    -6.3540 c          1 DBL       0.665100
     31 O30          6.6970    -7.9860    -5.3450 o          1 DBL      -0.594100
     32 N31          6.6710    -6.2660    -6.8070 nt         1 DBL      -0.666000
     33 N32          3.4320    -6.6010    -5.5340 ns         1 DBL      -0.552900
     34 C33          2.5000    -5.6080    -5.0670 c3         1 DBL       0.081000
     35 C34          3.3050    -4.4050    -4.5800 c          1 DBL       0.666100
     36 O35          4.2660    -4.0040    -5.2140 o          1 DBL      -0.602100
     37 C36          1.5890    -5.0960    -6.1860 ca         1 DBL      -0.082300
     38 C37          0.7810    -3.9860    -5.9850 ca         1 DBL      -0.142000
     39 C38          1.5960    -5.6960    -7.4360 ca         1 DBL      -0.158000
     40 C39          0.0460    -3.4650    -7.0390 ca         1 DBL       0.046100
     41 C40          0.8200    -5.2030    -8.4700 ca         1 DBL       0.106100
     42 C41          0.0450    -4.0550    -8.2990 ca         1 DBL       0.121100
     43 O42         -0.6500    -3.5820    -9.3440 oh         1 DBL      -0.471100
     44 N43          2.8170    -3.7930    -3.4940 ns         1 DBL      -0.551900
     45 C44          3.1810    -2.4370    -3.1770 c3         1 DBL       0.089000
     46 C45          2.0560    -1.8390    -2.3240 c          1 DBL       0.666100
     47 O46          1.2620    -2.5700    -1.7530 o          1 DBL      -0.627100
     48 C47          4.4730    -2.2470    -2.4130 ca         1 DBL      -0.158300
     49 C48          5.4540    -1.4220    -2.9320 ca         1 DBL      -0.061000
     50 C49          4.6420    -2.7490    -1.1240 ca         1 DBL      -0.059000
     51 C50          6.5510    -1.0130    -2.1790 cp         1 DBL      -0.136000
     52 C51          5.7470    -2.4010    -0.3710 ca         1 DBL      -0.170000
     53 C52          6.6910    -1.5090    -0.8810 ca         1 DBL       0.182100
     54 O53          7.7110    -1.1470    -0.0860 oh         1 DBL      -0.489100
     55 N54          2.0390    -0.5060    -2.1760 ns         1 DBL      -0.531900
     56 C55          2.7970     0.4820    -2.8940 c3         1 DBL       0.028700
     57 C56          3.8270     1.1330    -1.9590 c          1 DBL       0.658100
     58 O57          3.6590     1.1560    -0.7520 o          1 DBL      -0.586100
     59 C58          1.8260     1.4590    -3.5910 c3         1 DBL       0.192400
     60 O59          1.0300     2.0220    -2.5910 os         1 DBL      -0.432600
     61 C60          1.0270     0.6300    -4.5770 ca         1 DBL      -0.115300
     62 C61          1.6200     0.2370    -5.7740 ca         1 DBL      -0.115000
     63 C62         -0.2030     0.0930    -4.2260 ca         1 DBL      -0.088000
     64 C63          1.0360    -0.7320    -6.5700 ca         1 DBL      -0.145000
     65 C64         -0.7910    -0.8760    -5.0250 ca         1 DBL       0.015400
     66 C65         -0.1610    -1.3170    -6.1800 ca         1 DBL       0.094100
     67 O66         -0.7220    -2.3350    -6.9000 os         1 DBL      -0.253200
     68 N68          4.9310     1.5790    -2.5710 ns         1 DBL      -0.520900
     69 C69          6.1500     1.8860    -1.8450 c3         1 DBL      -0.003000
     70 C70          6.3000     3.3910    -1.5060 c          1 DBL       0.933600
     71 O71          5.8600     4.1960    -2.3430 o          1 DBL      -0.817300
     72 C72          7.3380     1.3480    -2.6310 ca         1 DBL       0.033700
     73 C73          7.5220    -0.0400    -2.7420 cp         1 DBL      -0.210000
     74 C74          8.2290     2.2120    -3.2480 ca         1 DBL      -0.224000
     75 C75          8.6150    -0.5240    -3.4720 ca         1 DBL       0.174100
     76 C76          9.5230     0.3420    -4.0660 ca         1 DBL      -0.225000
     77 C77          9.3230     1.7090    -3.9540 ca         1 DBL       0.168100
     78 O78         10.2130     2.5170    -4.5560 oh         1 DBL      -0.506100
     79 O79          8.8330    -1.8420    -3.6290 oh         1 DBL      -0.507100
     80 O80          6.8870     3.6370    -0.4370 o          1 DBL      -0.817300
     81 C10          0.4430     3.2690    -2.8830 c6         1 DBL       0.342900
     82 C2          -0.7790     3.4580    -2.0010 c6         1 DBL      -0.095400
     83 C13         -0.4700     3.8130    -0.5410 c6         1 DBL       0.204200
     84 C15          0.5450     4.9810    -0.5600 c6         1 DBL       0.333600
     85 C5           1.7730     4.5980    -1.4170 c6         1 DBL       0.086100
     86 O6           1.3690     4.3000    -2.7480 os         1 DBL      -0.413600
     87 C22          0.0750     2.6040     0.2340 c3         1 DBL      -0.121100
     88 N8          -1.7190     4.2830     0.0550 n8         1 DBL      -0.865800
     89 O9          -0.1020     6.0960    -1.0950 oh         1 DBL      -0.603800
     90 O1           0.9300     5.2030     0.7690 oh         1 DBL      -0.603800
     91 C2B          2.8270     5.6860    -1.5160 c3         1 DBL      -0.113100
     92 HC1          2.3690   -16.6590   -11.7840 h1         1 DBL       0.031700
     93 HC2          3.8890   -16.0810   -11.1170 h1         1 DBL       0.031700
     94 HC3          2.5630   -14.9480   -11.4020 h1         1 DBL       0.031700
     95 HN2          1.3300   -16.3200    -9.7100 hn         1 DBL       0.376800
     96 HA           3.9220   -15.4080    -8.7670 h1         1 DBL       0.067700
     97 HC61         1.3310   -15.8400    -7.2140 hc         1 DBL       0.049700
     98 HC62         2.8040   -15.1310    -6.5930 hc         1 DBL       0.049700
     99 HC7          2.7890   -17.2650    -5.7600 hc         1 DBL       0.039700
    100 HA1          4.7580   -18.3850    -6.6610 hc         1 DBL       0.034700
    101 HB2          5.0080   -16.6430    -6.7480 hc         1 DBL       0.034700
    102 HD3          4.5920   -17.5540    -8.2030 hc         1 DBL       0.034700
    103 HB1          2.2070   -18.5080    -8.4770 hc         1 DBL       0.034700
    104 HD2          2.3910   -19.3570    -6.9380 hc         1 DBL       0.034700
    105 HE3          1.0250   -18.2730    -7.1900 hc         1 DBL       0.034700
    106 HN01         4.1360   -13.2470    -8.2930 hn         1 DBL       0.343500
    107 HC11         1.8120   -11.5280    -8.1910 h1         1 DBL       0.091700
    108 HC41         2.1840   -11.6480   -10.6090 h1         1 DBL       0.063700
    109 HO51         4.4650   -11.9400   -10.5820 ho         1 DBL       0.420000
    110 HC71         4.1930    -8.6490   -10.4770 ha         1 DBL       0.168000
    111 HC81         0.3100   -10.2510    -9.6050 ha         1 DBL       0.149000
    112 HC02        -0.5860    -7.9670    -9.4170 ha         1 DBL       0.159000
    113 HN42         2.3490    -9.5130    -7.3010 hn         1 DBL       0.336500
    114 HC52         4.6120    -9.3940    -5.5560 h1         1 DBL       0.116700
    115 H281         4.7210    -7.4340    -7.9040 hc         1 DBL       0.077200
    116 H282         5.6890    -8.8780    -7.7900 hc         1 DBL       0.077200
    117 H311         6.3630    -5.8920    -7.6880 hn         1 DBL       0.320500
    118 H312         7.4330    -5.7870    -6.3510 hn         1 DBL       0.320500
    119 HN23         4.2750    -6.2300    -5.9470 hn         1 DBL       0.345500
    120 HC33         1.9000    -6.0320    -4.2600 h1         1 DBL       0.102700
    121 HC73         0.7250    -3.5040    -5.0170 ha         1 DBL       0.157000
    122 HC83         2.2270    -6.5520    -7.6190 ha         1 DBL       0.140000
    123 HO24        -1.0950    -2.7590    -9.1070 ho         1 DBL       0.442000
    124 HN34         2.0580    -4.2030    -2.9690 hn         1 DBL       0.347500
    125 HC44         3.2610    -1.8950    -4.1240 h1         1 DBL       0.072700
    126 HC84         5.3600    -1.0480    -3.9460 ha         1 DBL       0.129000
    127 HC94         3.9000    -3.4060    -0.6860 ha         1 DBL       0.139000
    128 HC15         5.8710    -2.7930     0.6310 ha         1 DBL       0.147000
    129 HO35         8.2980    -0.5370    -0.5540 ho         1 DBL       0.449000
    130 HN45         1.3650    -0.1540    -1.5100 hn         1 DBL       0.343500
    131 HC55         3.3510    -0.0000    -3.6970 h1         1 DBL       0.063700
    132 HC85         2.4150     2.2160    -4.1260 h1         1 DBL       0.083700
    133 HC16         2.5670     0.6680    -6.0770 ha         1 DBL       0.144000
    134 HC26        -0.6920     0.3860    -3.3060 ha         1 DBL       0.166000
    135 HC36         1.5180    -1.0500    -7.4850 ha         1 DBL       0.150000
    136 HN86         4.9780     1.5620    -3.5770 hn         1 DBL       0.301500
    137 HC96         6.0960     1.3370    -0.9030 h1         1 DBL       0.081700
    138 HC47         8.0740     3.2830    -3.2070 ha         1 DBL       0.177000
    139 HC67        10.3680    -0.0480    -4.6190 ha         1 DBL       0.150000
    140 HO87         9.9830     3.4410    -4.4090 ho         1 DBL       0.433000
    141 HO97         8.1120    -2.3510    -3.2340 ho         1 DBL       0.435000
    142 HC'1         0.1370     3.2920    -3.9360 h2         1 DBL       0.062700
    143 H2'1        -1.3720     4.2640    -2.4350 hc         1 DBL       0.064700
    144 H2'2        -1.3980     2.5580    -2.0450 hc         1 DBL       0.064700
    145 HC'5         2.2470     3.7230    -0.9600 h1         1 DBL       0.092700
    146 H7'1        -0.6290     1.7750     0.1350 hc         1 DBL       0.049367
    147 H7'2         1.0460     2.2440    -0.1020 hc         1 DBL       0.049367
    148 H7'3         0.1560     2.8360     1.2960 hc         1 DBL       0.049367
    149 H8'1        -1.5780     4.4410     1.0470 hn         1 DBL       0.335800
    150 H8'2        -2.3990     3.5320     0.0020 hn         1 DBL       0.335800
    151 H9'O         0.5490     6.7290    -1.4180 ho         1 DBL       0.408000
    152 HO'1         1.4920     5.9850     0.8230 ho         1 DBL       0.408000
    153 H2A1         3.1730     5.9960    -0.5300 hc         1 DBL       0.061367
    154 H2A2         3.7020     5.3040    -2.0380 hc         1 DBL       0.061367
    155 H2'3         2.4780     6.5720    -2.0530 hc         1 DBL       0.061367
@<TRIPOS>BOND
     1     1     2 1   
     2     1    92 1   
     3     1    93 1   
     4     1    94 1   
     5     2     3 1   
     6     2    95 1   
     7     3     4 1   
     8     3     6 1   
     9     3    96 1   
    10     4     5 2   
    11     4    10 1   
    12     6     7 1   
    13     6    97 1   
    14     6    98 1   
    15     7     8 1   
    16     7     9 1   
    17     7    99 1   
    18     8   100 1   
    19     8   101 1   
    20     8   102 1   
    21     9   103 1   
    22     9   104 1   
    23     9   105 1   
    24    10    13 1   
    25    10   106 1   
    26    11    21 1   
    27    12    65 1   
    28    13    14 1   
    29    13    16 1   
    30    13   107 1   
    31    14    15 2   
    32    14    25 1   
    33    16    17 1   
    34    16    18 1   
    35    16   108 1   
    36    17   109 1   
    37    18    19 ar  
    38    18    20 ar  
    39    19    21 ar  
    40    19   110 1   
    41    20    22 ar  
    42    20   111 1   
    43    21    23 ar  
    44    22    23 ar  
    45    22   112 1   
    46    23    24 1   
    47    24    41 1   
    48    25    26 1   
    49    25   113 1   
    50    26    27 1   
    51    26    29 1   
    52    26   114 1   
    53    27    28 2   
    54    27    33 1   
    55    29    30 1   
    56    29   115 1   
    57    29   116 1   
    58    30    31 2   
    59    30    32 1   
    60    32   117 1   
    61    32   118 1   
    62    33    34 1   
    63    33   119 1   
    64    34    35 1   
    65    34    37 1   
    66    34   120 1   
    67    35    36 2   
    68    35    44 1   
    69    37    38 ar  
    70    37    39 ar  
    71    38    40 ar  
    72    38   121 1   
    73    39    41 ar  
    74    39   122 1   
    75    40    42 ar  
    76    40    67 1   
    77    41    42 ar  
    78    42    43 1   
    79    43   123 1   
    80    44    45 1   
    81    44   124 1   
    82    45    46 1   
    83    45    48 1   
    84    45   125 1   
    85    46    47 2   
    86    46    55 1   
    87    48    49 ar  
    88    48    50 ar  
    89    49    51 ar  
    90    49   126 1   
    91    50    52 ar  
    92    50   127 1   
    93    51    53 ar  
    94    51    73 1   
    95    52    53 ar  
    96    52   128 1   
    97    53    54 1   
    98    54   129 1   
    99    55    56 1   
   100    55   130 1   
   101    56    57 1   
   102    56    59 1   
   103    56   131 1   
   104    57    58 2   
   105    57    68 1   
   106    59    60 1   
   107    59    61 1   
   108    59   132 1   
   109    60    81 1   
   110    61    62 ar  
   111    61    63 ar  
   112    62    64 ar  
   113    62   133 1   
   114    63    65 ar  
   115    63   134 1   
   116    64    66 ar  
   117    64   135 1   
   118    65    66 ar  
   119    66    67 1   
   120    68    69 1   
   121    68   136 1   
   122    69    70 1   
   123    69    72 1   
   124    69   137 1   
   125    70    71 1   
   126    70    80 1   
   127    72    73 ar  
   128    72    74 ar  
   129    73    75 ar  
   130    74    77 ar  
   131    74   138 1   
   132    75    76 ar  
   133    75    79 1   
   134    76    77 ar  
   135    76   139 1   
   136    77    78 1   
   137    78   140 1   
   138    79   141 1   
   139    81    82 1   
   140    81    86 1   
   141    81   142 1   
   142    82    83 1   
   143    82   143 1   
   144    82   144 1   
   145    83    84 1   
   146    83    87 1   
   147    83    88 1   
   148    84    85 1   
   149    84    89 1   
   150    84    90 1   
   151    85    86 1   
   152    85    91 1   
   153    85   145 1   
   154    87   146 1   
   155    87   147 1   
   156    87   148 1   
   157    88   149 1   
   158    88   150 1   
   159    89   151 1   
   160    90   152 1   
   161    91   153 1   
   162    91   154 1   
   163    91   155 1   
@<TRIPOS>SUBSTRUCTURE
     1 DBL         1 TEMP              0 ****  ****    0 ROOT
