@<TRIPOS>MOLECULE
DBL
  155   163     1     0     0
SMALL
No Charge or Current Charge


@<TRIPOS>ATOM
      1 C1           2.6700   -15.9070   -11.4040 c3         1 DBL       0.146100
      2 N2           2.7490   -16.5560   -10.0810 n7         1 DBL      -0.854400
      3 C3           3.3160   -15.7200    -8.9740 c3         1 DBL       0.111500
      4 C4           2.4110   -14.4900    -8.6120 c          1 DBL       0.554100
      5 O5           1.2340   -14.5990    -8.2920 o          1 DBL      -0.613100
      6 C6           3.5640   -16.5940    -7.7080 c3         1 DBL      -0.065400
      7 C7           4.8560   -17.4670    -7.6880 c3         1 DBL      -0.046700
      8 C8           6.1530   -16.6230    -7.7120 c3         1 DBL      -0.088100
      9 C9           4.8800   -18.5720    -8.7690 c3         1 DBL      -0.088100
     10 N10          3.0230   -13.2540    -8.6980 ns         1 DBL      -0.506900
     11 Cl1          1.0240    -6.3360   -10.4040 cl         1 DBL      -0.176000
     12 Cl2         -1.7390    -1.3810    -5.3800 cl         1 DBL      -0.174000
     13 C11          2.3720   -11.9540    -8.3710 c3         1 DBL      -0.012300
     14 C12          3.4550   -10.8630    -8.1480 c          1 DBL       0.602100
     15 O13          4.5930   -10.9460    -8.5930 o          1 DBL      -0.603100
     16 C14          1.3250   -11.5410    -9.4510 c3         1 DBL       0.215600
     17 O15          1.9290   -11.5680   -10.7510 oh         1 DBL      -0.651000
     18 C16          0.6540   -10.1880    -9.1730 ca         1 DBL      -0.086300
     19 C17          1.0620    -9.0090    -9.8400 ca         1 DBL      -0.069000
     20 C18         -0.3780   -10.1040    -8.2160 ca         1 DBL      -0.106000
     21 C19          0.4650    -7.7730    -9.5430 ca         1 DBL       0.089000
     22 C20         -0.9800    -8.8670    -7.9170 ca         1 DBL      -0.106000
     23 C21         -0.5550    -7.6970    -8.5690 ca         1 DBL       0.108100
     24 O22         -1.1050    -6.4850    -8.2090 os         1 DBL      -0.220200
     25 N24          3.0570    -9.8010    -7.3650 ns         1 DBL      -0.489900
     26 C25          3.8580    -8.5960    -7.0530 c3         1 DBL       0.052700
     27 C26          3.1780    -7.8520    -5.8560 c          1 DBL       0.592100
     28 O27          2.4050    -8.4220    -5.0960 o          1 DBL      -0.600100
     29 C28          4.0510    -7.7150    -8.3240 c3         1 DBL      -0.197400
     30 C29          5.3760    -6.9660    -8.2770 c          1 DBL       0.598100
     31 O30          5.5130    -5.9200    -7.6710 o          1 DBL      -0.594100
     32 N31          6.4100    -7.5310    -8.9300 nt         1 DBL      -0.599000
     33 N32          3.4200    -6.4990    -5.7330 ns         1 DBL      -0.485900
     34 C33          2.5370    -5.5690    -4.9920 c3         1 DBL       0.081000
     35 C34          3.3570    -4.4380    -4.3040 c          1 DBL       0.599100
     36 O35          4.4900    -4.1240    -4.6470 o          1 DBL      -0.602100
     37 C36          1.4630    -5.0350    -5.9670 ca         1 DBL      -0.082300
     38 C37          1.3640    -3.6710    -6.3290 ca         1 DBL      -0.124000
     39 C38          0.5840    -5.9510    -6.5780 ca         1 DBL      -0.140000
     40 C39          0.3950    -3.2350    -7.2600 ca         1 DBL       0.046100
     41 C40         -0.3430    -5.5380    -7.5530 ca         1 DBL       0.106100
     42 C41         -0.4560    -4.1700    -7.8850 ca         1 DBL       0.121100
     43 O42         -1.3670    -3.7410    -8.8170 oh         1 DBL      -0.510100
     44 N43          2.6700    -3.7350    -3.3370 ns         1 DBL      -0.484900
     45 C44          3.0270    -2.3730    -2.9010 c3         1 DBL       0.089000
     46 C45          1.7710    -1.6350    -2.3250 c          1 DBL       0.599100
     47 O46          0.7230    -2.2170    -2.0770 o          1 DBL      -0.627100
     48 C47          4.1830    -2.3290    -1.8970 ca         1 DBL      -0.158300
     49 C48          5.3440    -1.5900    -2.1980 ca         1 DBL      -0.043000
     50 C49          4.0490    -2.9060    -0.6190 ca         1 DBL      -0.041000
     51 C50          6.3340    -1.3440    -1.2200 cp         1 DBL      -0.136000
     52 C51          5.0510    -2.7160     0.3480 ca         1 DBL      -0.152000
     53 C52          6.1740    -1.9270     0.0580 ca         1 DBL       0.182100
     54 O53          7.1110    -1.7210     1.0240 oh         1 DBL      -0.528100
     55 N54          1.8980    -0.3030    -1.9890 ns         1 DBL      -0.464900
     56 C55          2.8680     0.6560    -2.5830 c3         1 DBL       0.028700
     57 C56          3.7190     1.3190    -1.4730 c          1 DBL       0.591100
     58 O57          3.3090     1.5350    -0.3390 o          1 DBL      -0.586100
     59 C58          2.1790     1.6560    -3.5390 c3         1 DBL       0.215600
     60 O59          1.1470     2.3410    -2.8070 os         1 DBL      -0.479000
     61 C60          1.5700     0.8750    -4.7110 ca         1 DBL      -0.115300
     62 C61          2.3600     0.6010    -5.8470 ca         1 DBL      -0.097000
     63 C62          0.2880     0.2880    -4.6080 ca         1 DBL      -0.070000
     64 C63          1.8990    -0.2850    -6.8370 ca         1 DBL      -0.127000
     65 C64         -0.1680    -0.6060    -5.5890 ca         1 DBL       0.107000
     66 C65          0.6510    -0.9140    -6.6940 ca         1 DBL       0.094100
     67 O66          0.2840    -1.8950    -7.5870 os         1 DBL      -0.253200
     68 N68          5.0360     1.5360    -1.8240 ns         1 DBL      -0.453900
     69 C69          6.1410     1.6270    -0.8400 c3         1 DBL      -0.003000
     70 C70          6.3310     3.0850    -0.3120 c          1 DBL       0.723000
     71 O71          6.1700     4.0240    -1.0830 o          1 DBL      -0.712000
     72 C72          7.4220     0.9620    -1.3850 ca         1 DBL       0.033700
     73 C73          7.4960    -0.4570    -1.5460 cp         1 DBL      -0.210000
     74 C74          8.5390     1.7490    -1.7530 ca         1 DBL      -0.206000
     75 C75          8.6840    -1.0280    -2.0600 ca         1 DBL       0.174100
     76 C76          9.7800    -0.2320    -2.4010 ca         1 DBL      -0.207000
     77 C77          9.7060     1.1540    -2.2500 ca         1 DBL       0.168100
     78 O78         10.7770     1.9210    -2.5970 oh         1 DBL      -0.545100
     79 O79          8.7700    -2.3730    -2.2370 oh         1 DBL      -0.546100
     80 O80          6.6560     3.2320     0.8580 o          1 DBL      -0.712000
     81 C10          0.6040     3.5180    -3.4210 c6         1 DBL       0.389300
     82 C2          -0.6420     4.0350    -2.6530 c6         1 DBL      -0.095400
     83 C13         -0.3150     4.6950    -1.2730 c6         1 DBL       0.204200
     84 C15          0.8810     5.7460    -1.4650 c6         1 DBL       0.380000
     85 C5           2.0750     5.0220    -2.1940 c6         1 DBL       0.109300
     86 O6           1.6290     4.5350    -3.4820 os         1 DBL      -0.460000
     87 C22         -0.0070     3.6190    -0.1830 c3         1 DBL      -0.121100
     88 N8          -1.5430     5.3950    -0.8080 n8         1 DBL      -0.976200
     89 O9           0.4200     6.8420    -2.2450 oh         1 DBL      -0.726000
     90 O1           1.2870     6.3080    -0.2260 oh         1 DBL      -0.726000
     91 C2B          3.3140     5.9170    -2.4770 c3         1 DBL      -0.113100
     92 HC1          2.2740   -16.6070   -12.1520 h1         1 DBL       0.031700
     93 HC2          3.6640   -15.5810   -11.7380 h1         1 DBL       0.031700
     94 HC3          2.0100   -15.0300   -11.3760 h1         1 DBL       0.031700
     95 HN2          1.7990   -16.8430    -9.8060 hn         1 DBL       0.432000
     96 HA           4.2820   -15.3050    -9.2890 h1         1 DBL       0.067700
     97 HC61         2.6900   -17.2340    -7.5330 hc         1 DBL       0.049700
     98 HC62         3.6140   -15.9260    -6.8380 hc         1 DBL       0.049700
     99 HC7          4.8480   -17.9880    -6.7210 hc         1 DBL       0.039700
    100 HA1          7.0270   -17.2600    -7.5310 hc         1 DBL       0.034700
    101 HB2          6.1310   -15.8530    -6.9320 hc         1 DBL       0.034700
    102 HD3          6.2910   -16.1310    -8.6810 hc         1 DBL       0.034700
    103 HB1          4.9950   -18.1440    -9.7710 hc         1 DBL       0.034700
    104 HD2          5.7200   -19.2570    -8.5980 hc         1 DBL       0.034700
    105 HE3          3.9550   -19.1600    -8.7450 hc         1 DBL       0.034700
    106 HN01         4.0100   -13.2420    -8.9430 hn         1 DBL       0.343500
    107 HC11         1.8450   -12.0720    -7.4150 h1         1 DBL       0.091700
    108 HC41         0.5270   -12.2960    -9.4270 h1         1 DBL       0.063700
    109 HO51         2.3860   -12.4330   -10.8230 ho         1 DBL       0.459000
    110 HC71         1.8540    -9.0420   -10.5830 ha         1 DBL       0.150000
    111 HC81        -0.7110   -10.9990    -7.6920 ha         1 DBL       0.131000
    112 HC02        -1.7640    -8.8100    -7.1650 ha         1 DBL       0.141000
    113 HN42         2.1150    -9.8450    -6.9900 hn         1 DBL       0.336500
    114 HC52         4.8420    -8.9270    -6.6920 h1         1 DBL       0.116700
    115 H281         3.2200    -7.0060    -8.4140 hc         1 DBL       0.077200
    116 H282         4.0660    -8.3710    -9.2020 hc         1 DBL       0.077200
    117 H311         6.2850    -8.4080    -9.4130 hn         1 DBL       0.320500
    118 H312         7.3080    -7.0710    -8.9230 hn         1 DBL       0.320500
    119 HN23         4.1170    -6.0940    -6.3560 hn         1 DBL       0.345500
    120 HC33         2.0360    -6.1170    -4.1840 h1         1 DBL       0.102700
    121 HC73         2.0450    -2.9410    -5.9030 ha         1 DBL       0.139000
    122 HC83         0.6330    -7.0020    -6.3140 ha         1 DBL       0.122000
    123 HO24        -1.2690    -2.7670    -8.8920 ho         1 DBL       0.481000
    124 HN34         1.7340    -4.0590    -3.1130 hn         1 DBL       0.347500
    125 HC44         3.3170    -1.8290    -3.8080 h1         1 DBL       0.072700
    126 HC84         5.4630    -1.1460    -3.1840 ha         1 DBL       0.111000
    127 HC94         3.1570    -3.4770    -0.3660 ha         1 DBL       0.121000
    128 HC15         4.9400    -3.1560     1.3360 ha         1 DBL       0.129000
    129 HO35         7.7970    -1.1390     0.6330 ho         1 DBL       0.488000
    130 HN45         1.0980     0.0960    -1.5140 hn         1 DBL       0.343500
    131 HC55         3.5800     0.1130    -3.2080 h1         1 DBL       0.063700
    132 HC85         2.9320     2.3630    -3.9150 h1         1 DBL       0.083700
    133 HC16         3.3540     1.0330    -5.9400 ha         1 DBL       0.126000
    134 HC26        -0.3340     0.4710    -3.7360 ha         1 DBL       0.148000
    135 HC36         2.5320    -0.5280    -7.6870 ha         1 DBL       0.132000
    136 HN86         5.2910     1.3600    -2.7880 hn         1 DBL       0.301500
    137 HC96         5.8380     1.0480     0.0410 h1         1 DBL       0.081700
    138 HC47         8.5040     2.8300    -1.6590 ha         1 DBL       0.159000
    139 HC67        10.6840    -0.6890    -2.7920 ha         1 DBL       0.132000
    140 HO87        10.5540     2.8610    -2.4310 ho         1 DBL       0.472000
    141 HO97         7.8890    -2.7430    -2.0150 ho         1 DBL       0.474000
    142 HC'1         0.2910     3.2670    -4.4460 h2         1 DBL       0.062700
    143 H2'1        -1.1520     4.7620    -3.2990 hc         1 DBL       0.064700
    144 H2'2        -1.3530     3.2090    -2.5220 hc         1 DBL       0.064700
    145 HC'5         2.4180     4.1730    -1.5860 h1         1 DBL       0.092700
    146 H7'1        -0.8140     2.8790    -0.1130 hc         1 DBL       0.049367
    147 H7'2         0.9160     3.0670    -0.3840 hc         1 DBL       0.049367
    148 H7'3         0.1070     4.0700     0.8100 hc         1 DBL       0.049367
    149 H8'1        -1.4210     6.3640    -1.1290 hn         1 DBL       0.391000
    150 H8'2        -1.4690     5.4920     0.2080 hn         1 DBL       0.391000
    151 H9'O         0.9220     6.7810    -3.0870 ho         1 DBL       0.507000
    152 HO'1         2.0520     6.8820    -0.4370 ho         1 DBL       0.507000
    153 H2A1         3.7820     6.2610    -1.5480 hc         1 DBL       0.061367
    154 H2A2         4.0770     5.3520    -3.0270 hc         1 DBL       0.061367
    155 H2'3         3.0620     6.7990    -3.0770 hc         1 DBL       0.061367
@<TRIPOS>BOND
     1     1     2 1   
     2     1    92 1   
     3     1    93 1   
     4     1    94 1   
     5     2     3 1   
     6     2    95 1   
     7     3     4 1   
     8     3     6 1   
     9     3    96 1   
    10     4     5 2   
    11     4    10 1   
    12     6     7 1   
    13     6    97 1   
    14     6    98 1   
    15     7     8 1   
    16     7     9 1   
    17     7    99 1   
    18     8   100 1   
    19     8   101 1   
    20     8   102 1   
    21     9   103 1   
    22     9   104 1   
    23     9   105 1   
    24    10    13 1   
    25    10   106 1   
    26    11    21 1   
    27    12    65 1   
    28    13    14 1   
    29    13    16 1   
    30    13   107 1   
    31    14    15 2   
    32    14    25 1   
    33    16    17 1   
    34    16    18 1   
    35    16   108 1   
    36    17   109 1   
    37    18    19 ar  
    38    18    20 ar  
    39    19    21 ar  
    40    19   110 1   
    41    20    22 ar  
    42    20   111 1   
    43    21    23 ar  
    44    22    23 ar  
    45    22   112 1   
    46    23    24 1   
    47    24    41 1   
    48    25    26 1   
    49    25   113 1   
    50    26    27 1   
    51    26    29 1   
    52    26   114 1   
    53    27    28 2   
    54    27    33 1   
    55    29    30 1   
    56    29   115 1   
    57    29   116 1   
    58    30    31 2   
    59    30    32 1   
    60    32   117 1   
    61    32   118 1   
    62    33    34 1   
    63    33   119 1   
    64    34    35 1   
    65    34    37 1   
    66    34   120 1   
    67    35    36 2   
    68    35    44 1   
    69    37    38 ar  
    70    37    39 ar  
    71    38    40 ar  
    72    38   121 1   
    73    39    41 ar  
    74    39   122 1   
    75    40    42 ar  
    76    40    67 1   
    77    41    42 ar  
    78    42    43 1   
    79    43   123 1   
    80    44    45 1   
    81    44   124 1   
    82    45    46 1   
    83    45    48 1   
    84    45   125 1   
    85    46    47 2   
    86    46    55 1   
    87    48    49 ar  
    88    48    50 ar  
    89    49    51 ar  
    90    49   126 1   
    91    50    52 ar  
    92    50   127 1   
    93    51    53 ar  
    94    51    73 1   
    95    52    53 ar  
    96    52   128 1   
    97    53    54 1   
    98    54   129 1   
    99    55    56 1   
   100    55   130 1   
   101    56    57 1   
   102    56    59 1   
   103    56   131 1   
   104    57    58 2   
   105    57    68 1   
   106    59    60 1   
   107    59    61 1   
   108    59   132 1   
   109    60    81 1   
   110    61    62 ar  
   111    61    63 ar  
   112    62    64 ar  
   113    62   133 1   
   114    63    65 ar  
   115    63   134 1   
   116    64    66 ar  
   117    64   135 1   
   118    65    66 ar  
   119    66    67 1   
   120    68    69 1   
   121    68   136 1   
   122    69    70 1   
   123    69    72 1   
   124    69   137 1   
   125    70    71 1   
   126    70    80 1   
   127    72    73 ar  
   128    72    74 ar  
   129    73    75 ar  
   130    74    77 ar  
   131    74   138 1   
   132    75    76 ar  
   133    75    79 1   
   134    76    77 ar  
   135    76   139 1   
   136    77    78 1   
   137    78   140 1   
   138    79   141 1   
   139    81    82 1   
   140    81    86 1   
   141    81   142 1   
   142    82    83 1   
   143    82   143 1   
   144    82   144 1   
   145    83    84 1   
   146    83    87 1   
   147    83    88 1   
   148    84    85 1   
   149    84    89 1   
   150    84    90 1   
   151    85    86 1   
   152    85    91 1   
   153    85   145 1   
   154    87   146 1   
   155    87   147 1   
   156    87   148 1   
   157    88   149 1   
   158    88   150 1   
   159    89   151 1   
   160    90   152 1   
   161    91   153 1   
   162    91   154 1   
   163    91   155 1   
@<TRIPOS>SUBSTRUCTURE
     1 DBL         1 TEMP              0 ****  ****    0 ROOT
