@<TRIPOS>MOLECULE
DBN
   50    55     1     0     0
SMALL
No Charge or Current Charge


@<TRIPOS>ATOM
      1 C27          9.2780    -1.6080     0.9100 c5         1 DBN       0.151800
      2 C28          8.7010    -2.6780    -0.0620 c5         1 DBN       0.087800
      3 C29         -9.7570    -0.6380     0.4090 c5         1 DBN       0.152800
      4 C30         -9.4250    -2.1290     0.1110 c5         1 DBN       0.085800
      5 C1          -2.1040     0.8750    -0.2420 cc         1 DBN      -0.140000
      6 S2          -0.6910    -0.1790    -0.2390 ss         1 DBN       0.209000
      7 C3           0.3630     1.2310    -0.1860 cc         1 DBN      -0.254900
      8 C4          -0.3510     2.4070    -0.1560 cd         1 DBN      -0.072000
      9 C5          -1.7580     2.2050    -0.1830 cd         1 DBN      -0.130000
     10 C6           1.7960     1.1820    -0.1690 cc         1 DBN       0.503400
     11 N7           2.6560     2.2190    -0.1260 nd         1 DBN      -0.568100
     12 C8           3.9080     1.6100    -0.1280 ca         1 DBN       0.085400
     13 C9           3.8010     0.2520    -0.1710 ca         1 DBN      -0.089200
     14 N10          2.4700    -0.0340    -0.1980 na         1 DBN      -0.307600
     15 C11          5.1670     2.2210    -0.0990 ca         1 DBN      -0.058000
     16 C12          6.3160     1.3990    -0.1110 ca         1 DBN      -0.116000
     17 C13          6.2040    -0.0220    -0.1400 ca         1 DBN      -0.120900
     18 C14          4.9100    -0.6030    -0.1850 ca         1 DBN      -0.063000
     19 C15         -3.5020     0.4340    -0.2560 ca         1 DBN       0.002000
     20 C16         -4.5130     1.2240    -0.8400 ca         1 DBN      -0.107000
     21 C17         -5.8490     0.7870    -0.8530 ca         1 DBN      -0.075000
     22 C18         -6.2110    -0.4500    -0.2730 ca         1 DBN      -0.124900
     23 C19         -5.1900    -1.2510     0.2870 ca         1 DBN      -0.075000
     24 C20         -3.8550    -0.8110     0.2980 ca         1 DBN      -0.107000
     25 C21          7.4280    -0.8920    -0.1770 ce         1 DBN       0.620800
     26 N22          8.6050    -0.4040     0.3750 nu         1 DBN      -0.892400
     27 N23          7.3690    -2.1490    -0.4470 n2         1 DBN      -0.630900
     28 C24         -7.6330    -0.9320    -0.3100 ce         1 DBN       0.615800
     29 N25         -8.6510     0.0110    -0.3280 nu         1 DBN      -0.892400
     30 N26         -7.9510    -2.1530    -0.0590 n2         1 DBN      -0.622900
     31 H271         8.9850    -1.8110     1.9500 h1         1 DBN       0.047200
     32 H272        10.3740    -1.5550     0.8590 h1         1 DBN       0.047200
     33 H281         8.6230    -3.6630     0.4190 h1         1 DBN       0.063200
     34 H282         9.3350    -2.7820    -0.9530 h1         1 DBN       0.063200
     35 H292        -9.7110    -0.4250     1.4870 h1         1 DBN       0.048200
     36 H301        -9.7510    -2.7880     0.9270 h1         1 DBN       0.065200
     37 H302        -9.9140    -2.4630    -0.8150 h1         1 DBN       0.065200
     38 H4           0.1080     3.3920    -0.1120 ha         1 DBN       0.158000
     39 H5          -2.4720     3.0220    -0.1490 ha         1 DBN       0.140000
     40 H10          2.0410    -0.9480    -0.2330 hn         1 DBN       0.362000
     41 H11          5.2550     3.3050    -0.0750 ha         1 DBN       0.132000
     42 H12          7.2930     1.8760    -0.1100 ha         1 DBN       0.120000
     43 H14          4.7730    -1.6820    -0.2230 ha         1 DBN       0.142000
     44 H16         -4.2680     2.1750    -1.3060 ha         1 DBN       0.118500
     45 H17         -6.5990     1.4130    -1.3320 ha         1 DBN       0.130000
     46 H19         -5.4280    -2.2170     0.7260 ha         1 DBN       0.130000
     47 H20         -3.0960    -1.4440     0.7500 ha         1 DBN       0.118500
     48 H22          8.4630     0.4150     0.9620 hn         1 DBN       0.468000
     49 H25         -8.3390     0.9460    -0.0740 hn         1 DBN       0.467000
     50 H291       -10.7540    -0.3570     0.0400 h1         1 DBN       0.048200
@<TRIPOS>BOND
     1     1     2 1   
     2     1    26 1   
     3     1    31 1   
     4     1    32 1   
     5     2    27 1   
     6     2    33 1   
     7     2    34 1   
     8     3     4 1   
     9     3    29 1   
    10     3    35 1   
    11     3    50 1   
    12     4    30 1   
    13     4    36 1   
    14     4    37 1   
    15     5     6 1   
    16     5     9 2   
    17     5    19 1   
    18     6     7 1   
    19     7     8 2   
    20     7    10 1   
    21     8     9 1   
    22     8    38 1   
    23     9    39 1   
    24    10    11 2   
    25    10    14 1   
    26    11    12 1   
    27    12    13 ar  
    28    12    15 ar  
    29    13    14 1   
    30    13    18 ar  
    31    14    40 1   
    32    15    16 ar  
    33    15    41 1   
    34    16    17 ar  
    35    16    42 1   
    36    17    18 ar  
    37    17    25 1   
    38    18    43 1   
    39    19    20 ar  
    40    19    24 ar  
    41    20    21 ar  
    42    20    44 1   
    43    21    22 ar  
    44    21    45 1   
    45    22    23 ar  
    46    22    28 1   
    47    23    24 ar  
    48    23    46 1   
    49    24    47 1   
    50    25    26 1   
    51    25    27 2   
    52    26    48 1   
    53    28    29 1   
    54    28    30 2   
    55    29    49 1   
@<TRIPOS>SUBSTRUCTURE
     1 DBN         1 TEMP              0 ****  ****    0 ROOT
