@<TRIPOS>MOLECULE
DBN
   50    55     1     0     0
SMALL
abcg2


@<TRIPOS>ATOM
      1 C27          9.3610    -1.5960     0.6170 c5         1 DBN       0.151800
      2 C28          8.5500    -2.7600     0.0170 c5         1 DBN       0.087800
      3 C29         -9.7600    -0.8510     0.0520 c5         1 DBN       0.152800
      4 C30         -9.2070    -2.2840    -0.0570 c5         1 DBN       0.085800
      5 C1          -2.1290     1.1310    -0.1490 cc         1 DBN      -0.140000
      6 S2          -0.7670     0.0730    -0.1200 ss         1 DBN       0.209000
      7 C3           0.3410     1.3900    -0.1510 cc         1 DBN      -0.254900
      8 C4          -0.3200     2.5890    -0.1910 cd         1 DBN      -0.072000
      9 C5          -1.7210     2.4400    -0.1900 cd         1 DBN      -0.130000
     10 C6           1.7720     1.2000    -0.1440 cc         1 DBN       0.503400
     11 N7           2.6380     2.1760    -0.2690 nd         1 DBN      -0.568100
     12 C8           3.8650     1.5770    -0.2110 ca         1 DBN       0.085400
     13 C9           3.7190     0.1860    -0.0470 ca         1 DBN      -0.089200
     14 N10          2.3670    -0.0170    -0.0090 na         1 DBN      -0.307600
     15 C11          5.1430     2.1290    -0.2910 ca         1 DBN      -0.058000
     16 C12          6.2250     1.2770    -0.1990 ca         1 DBN      -0.116000
     17 C13          6.0650    -0.1130    -0.0310 ca         1 DBN      -0.120900
     18 C14          4.7970    -0.6770     0.0410 ca         1 DBN      -0.063000
     19 C15         -3.4890     0.6040    -0.1350 ca         1 DBN       0.002000
     20 C16         -4.5490     1.3890    -0.5930 ca         1 DBN      -0.107000
     21 C17         -5.8460     0.9090    -0.5750 ca         1 DBN      -0.075000
     22 C18         -6.1230    -0.3750    -0.1070 ca         1 DBN      -0.124900
     23 C19         -5.0660    -1.1650     0.3420 ca         1 DBN      -0.075000
     24 C20         -3.7720    -0.6830     0.3340 ca         1 DBN      -0.107000
     25 C21          7.2400    -0.9940     0.0590 ce         1 DBN       0.620800
     26 N22          8.4860    -0.4690     0.3170 nu         1 DBN      -0.892400
     27 N23          7.1900    -2.2570    -0.1290 n2         1 DBN      -0.630900
     28 C24         -7.4930    -0.9090    -0.0960 ce         1 DBN       0.615800
     29 N25         -8.5700    -0.0710    -0.2700 nu         1 DBN      -0.892400
     30 N26         -7.7570    -2.1530     0.0240 n2         1 DBN      -0.622900
     31 H271         9.5000    -1.7100     1.6960 h1         1 DBN       0.047200
     32 H272        10.3430    -1.4800     0.1600 h1         1 DBN       0.047200
     33 H281         8.5770    -3.6550     0.6410 h1         1 DBN       0.063200
     34 H282         8.9390    -3.0480    -0.9650 h1         1 DBN       0.063200
     35 H292       -10.1160    -0.6270     1.0620 h1         1 DBN       0.048200
     36 H301        -9.5880    -2.9440     0.7240 h1         1 DBN       0.065200
     37 H302        -9.4760    -2.7400    -1.0150 h1         1 DBN       0.065200
     38 H4           0.1890     3.5420    -0.2120 ha         1 DBN       0.158000
     39 H5          -2.4080     3.2740    -0.1980 ha         1 DBN       0.140000
     40 H10          1.9100    -0.9060     0.1280 hn         1 DBN       0.362000
     41 H11          5.2820     3.1940    -0.4240 ha         1 DBN       0.132000
     42 H12          7.2210     1.6930    -0.2800 ha         1 DBN       0.120000
     43 H14          4.6710    -1.7440     0.1670 ha         1 DBN       0.142000
     44 H16         -4.3620     2.3790    -0.9880 ha         1 DBN       0.118500
     45 H17         -6.6400     1.5400    -0.9540 ha         1 DBN       0.130000
     46 H19         -5.2660    -2.1620     0.7110 ha         1 DBN       0.130000
     47 H20         -2.9790    -1.3150     0.7150 ha         1 DBN       0.118500
     48 H22          8.5450     0.3380     0.9210 hn         1 DBN       0.468000
     49 H25         -8.5110     0.8620     0.1080 hn         1 DBN       0.467000
     50 H291       -10.5740    -0.6550    -0.6440 h1         1 DBN       0.048200
@<TRIPOS>BOND
     1     1     2 1   
     2     1    26 1   
     3     1    31 1   
     4     1    32 1   
     5     2    27 1   
     6     2    33 1   
     7     2    34 1   
     8     3     4 1   
     9     3    29 1   
    10     3    35 1   
    11     3    50 1   
    12     4    30 1   
    13     4    36 1   
    14     4    37 1   
    15     5     6 1   
    16     5     9 2   
    17     5    19 1   
    18     6     7 1   
    19     7     8 2   
    20     7    10 1   
    21     8     9 1   
    22     8    38 1   
    23     9    39 1   
    24    10    11 2   
    25    10    14 1   
    26    11    12 1   
    27    12    13 ar  
    28    12    15 ar  
    29    13    14 1   
    30    13    18 ar  
    31    14    40 1   
    32    15    16 ar  
    33    15    41 1   
    34    16    17 ar  
    35    16    42 1   
    36    17    18 ar  
    37    17    25 1   
    38    18    43 1   
    39    19    20 ar  
    40    19    24 ar  
    41    20    21 ar  
    42    20    44 1   
    43    21    22 ar  
    44    21    45 1   
    45    22    23 ar  
    46    22    28 1   
    47    23    24 ar  
    48    23    46 1   
    49    24    47 1   
    50    25    26 1   
    51    25    27 2   
    52    26    48 1   
    53    28    29 1   
    54    28    30 2   
    55    29    49 1   
@<TRIPOS>SUBSTRUCTURE
     1 DBN         1 TEMP              0 ****  ****    0 ROOT
