@<TRIPOS>MOLECULE
DBO
   70    74     1     0     0
SMALL
bcc


@<TRIPOS>ATOM
      1 N1          -0.3740    -0.4090     0.2990 ns         1 DBO      -0.558900
      2 C3           0.7950    -1.2550     0.3860 c3         1 DBO       0.084700
      3 C5           2.0480    -0.3730     0.2830 c3         1 DBO       0.136100
      4 O7           2.0460     0.3710    -0.9150 oh         1 DBO      -0.590800
      5 C9           3.3270    -1.1740     0.4800 c3         1 DBO       0.125800
      6 N12          4.4830    -0.3050     0.4970 n7         1 DBO      -0.810200
      7 C14          5.7310    -1.0260     0.6350 c3         1 DBO       0.209100
      8 C17          6.9210    -0.1060     0.5470 ca         1 DBO      -0.091300
      9 C18          6.9560     0.9170    -0.3980 ca         1 DBO      -0.106000
     10 C20          8.0570     1.7600    -0.5220 ca         1 DBO      -0.079300
     11 C21          9.1420     1.5680     0.3330 ca         1 DBO      -0.125000
     12 C23          9.1200     0.5560     1.2810 ca         1 DBO      -0.128000
     13 C25          8.0140    -0.2760     1.3910 ca         1 DBO      -0.129000
     14 C27          8.0840     2.8350    -1.5710 c3         1 DBO      -0.046800
     15 C31          0.7310    -2.3550    -0.6890 c3         1 DBO      -0.050100
     16 C34         -0.5340    -3.1570    -0.5810 ca         1 DBO      -0.083300
     17 C35         -1.6790    -2.7810    -1.2780 ca         1 DBO      -0.117500
     18 C37         -2.8720    -3.4740    -1.1160 ca         1 DBO      -0.124500
     19 C39         -2.9330    -4.5640    -0.2590 ca         1 DBO      -0.126000
     20 C41         -1.7930    -4.9560     0.4310 ca         1 DBO      -0.124500
     21 C43         -0.6070    -4.2550     0.2730 ca         1 DBO      -0.117500
     22 C45         -1.4480    -0.5190     1.1010 c          1 DBO       0.683700
     23 O46         -1.4910    -1.2580     2.0730 o          1 DBO      -0.606100
     24 C47         -2.6320     0.3070     0.6810 cc         1 DBO      -0.138600
     25 C48         -3.8400    -0.1890     0.9950 cd         1 DBO      -0.040000
     26 C50         -5.1320     0.3810     0.6450 ca         1 DBO      -0.143300
     27 C51         -5.3310     1.0790    -0.5480 ca         1 DBO       0.375900
     28 C52         -6.5660     1.6110    -0.8790 ca         1 DBO      -0.204300
     29 C54         -7.6390     1.4340    -0.0170 ca         1 DBO      -0.107000
     30 C56         -7.4730     0.7260     1.1680 ca         1 DBO      -0.138000
     31 C58         -6.2330     0.1980     1.4870 ca         1 DBO      -0.096000
     32 O60         -4.2990     1.1860    -1.4480 os         1 DBO      -0.510600
     33 C61         -3.2850     2.0120    -1.0280 ca         1 DBO       0.365900
     34 C62         -2.4300     1.5910    -0.0080 ca         1 DBO      -0.126300
     35 C63         -1.3970     2.4590     0.3660 ca         1 DBO      -0.104000
     36 C65         -1.2250     3.6830    -0.2580 ca         1 DBO      -0.130000
     37 C67         -2.0840     4.0700    -1.2780 ca         1 DBO      -0.112000
     38 C69         -3.1240     3.2360    -1.6580 ca         1 DBO      -0.201300
     39 HN1         -0.4350     0.1790    -0.5180 hn         1 DBO       0.331500
     40 H3           0.7890    -1.7220     1.3720 h1         1 DBO       0.086700
     41 H5           1.9750     0.3590     1.0970 h1         1 DBO       0.073700
     42 HO7          2.5510    -0.1060    -1.5820 ho         1 DBO       0.411000
     43 H91          3.4550    -1.8870    -0.3420 h1         1 DBO       0.037700
     44 H92          3.2230    -1.7810     1.3940 h1         1 DBO       0.037700
     45 H12          4.3960     0.3570     1.2590 hn         1 DBO       0.364800
     46 H141         5.7870    -1.7550    -0.1810 h1         1 DBO       0.036200
     47 H142         5.7930    -1.6130     1.5640 h1         1 DBO       0.036200
     48 H18          6.0980     1.0620    -1.0450 ha         1 DBO       0.145000
     49 H21         10.0060     2.2180     0.2580 ha         1 DBO       0.129000
     50 H23          9.9650     0.4210     1.9450 ha         1 DBO       0.130000
     51 H25          7.9990    -1.0580     2.1410 ha         1 DBO       0.126000
     52 H271         8.5160     2.4620    -2.5020 hc         1 DBO       0.042367
     53 H272         7.0820     3.1960    -1.8000 hc         1 DBO       0.042367
     54 H273         8.6860     3.6870    -1.2560 hc         1 DBO       0.042367
     55 H311         0.7990    -1.8990    -1.6800 hc         1 DBO       0.049200
     56 H312         1.5970    -3.0120    -0.5810 hc         1 DBO       0.049200
     57 H35         -1.6400    -1.9350    -1.9530 ha         1 DBO       0.127000
     58 H37         -3.7530    -3.1620    -1.6630 ha         1 DBO       0.131000
     59 H39         -3.8600    -5.1080    -0.1340 ha         1 DBO       0.129000
     60 H41         -1.8290    -5.8100     1.0970 ha         1 DBO       0.131000
     61 H43          0.2750    -4.5640     0.8220 ha         1 DBO       0.127000
     62 H48         -3.8710    -1.0970     1.5870 ha         1 DBO       0.157000
     63 H52         -6.6880     2.1410    -1.8150 ha         1 DBO       0.146000
     64 H54         -8.6060     1.8420    -0.2760 ha         1 DBO       0.135000
     65 H56         -8.3110     0.5790     1.8360 ha         1 DBO       0.136000
     66 H58         -6.1050    -0.3630     2.4050 ha         1 DBO       0.139000
     67 H63         -0.7260     2.1790     1.1670 ha         1 DBO       0.142000
     68 H65         -0.4200     4.3340     0.0540 ha         1 DBO       0.138000
     69 H67         -1.9500     5.0220    -1.7730 ha         1 DBO       0.135000
     70 H69         -3.8040     3.5230    -2.4500 ha         1 DBO       0.145000
@<TRIPOS>BOND
     1     1     2 1   
     2     1    22 1   
     3     1    39 1   
     4     2     3 1   
     5     2    15 1   
     6     2    40 1   
     7     3     4 1   
     8     3     5 1   
     9     3    41 1   
    10     4    42 1   
    11     5     6 1   
    12     5    43 1   
    13     5    44 1   
    14     6     7 1   
    15     6    45 1   
    16     7     8 1   
    17     7    46 1   
    18     7    47 1   
    19     8     9 ar  
    20     8    13 ar  
    21     9    10 ar  
    22     9    48 1   
    23    10    11 ar  
    24    10    14 1   
    25    11    12 ar  
    26    11    49 1   
    27    12    13 ar  
    28    12    50 1   
    29    13    51 1   
    30    14    52 1   
    31    14    53 1   
    32    14    54 1   
    33    15    16 1   
    34    15    55 1   
    35    15    56 1   
    36    16    17 ar  
    37    16    21 ar  
    38    17    18 ar  
    39    17    57 1   
    40    18    19 ar  
    41    18    58 1   
    42    19    20 ar  
    43    19    59 1   
    44    20    21 ar  
    45    20    60 1   
    46    21    61 1   
    47    22    23 2   
    48    22    24 1   
    49    24    25 2   
    50    24    34 1   
    51    25    26 1   
    52    25    62 1   
    53    26    27 ar  
    54    26    31 ar  
    55    27    28 ar  
    56    27    32 1   
    57    28    29 ar  
    58    28    63 1   
    59    29    30 ar  
    60    29    64 1   
    61    30    31 ar  
    62    30    65 1   
    63    31    66 1   
    64    32    33 1   
    65    33    34 ar  
    66    33    38 ar  
    67    34    35 ar  
    68    35    36 ar  
    69    35    67 1   
    70    36    37 ar  
    71    36    68 1   
    72    37    38 ar  
    73    37    69 1   
    74    38    70 1   
@<TRIPOS>SUBSTRUCTURE
     1 DBO         1 TEMP              0 ****  ****    0 ROOT
