@<TRIPOS>MOLECULE
DBO
   70    74     1     0     0
SMALL
No Charge or Current Charge


@<TRIPOS>ATOM
      1 N1          -0.4180    -0.4850     0.5140 ns         1 DBO      -0.491900
      2 C3           0.7770    -1.3400     0.5120 c3         1 DBO       0.084700
      3 C5           2.0560    -0.4730     0.7290 c3         1 DBO       0.159300
      4 O7           2.2510     0.4620    -0.3410 oh         1 DBO      -0.653000
      5 C9           3.3790    -1.2710     0.8810 c3         1 DBO       0.125800
      6 N12          4.5430    -0.3540     0.7550 n7         1 DBO      -0.865400
      7 C14          5.8570    -1.0170     0.7010 c3         1 DBO       0.209100
      8 C17          6.9670     0.0190     0.6090 ca         1 DBO      -0.091300
      9 C18          7.2900     0.6030    -0.6320 ca         1 DBO      -0.088000
     10 C20          8.3170     1.5620    -0.7280 ca         1 DBO      -0.079300
     11 C21          9.0270     1.9350     0.4290 ca         1 DBO      -0.107000
     12 C23          8.7090     1.3580     1.6700 ca         1 DBO      -0.110000
     13 C25          7.6820     0.4030     1.7610 ca         1 DBO      -0.111000
     14 C27          8.6600     2.1850    -2.0730 c3         1 DBO      -0.046800
     15 C31          0.7890    -2.2240    -0.7680 c3         1 DBO      -0.050100
     16 C34         -0.5350    -2.9490    -0.9980 ca         1 DBO      -0.083300
     17 C35         -1.4940    -2.4180    -1.8840 ca         1 DBO      -0.099500
     18 C37         -2.7240    -3.0710    -2.0730 ca         1 DBO      -0.106500
     19 C39         -3.0010    -4.2620    -1.3800 ca         1 DBO      -0.108000
     20 C41         -2.0480    -4.7980    -0.4970 ca         1 DBO      -0.106500
     21 C43         -0.8190    -4.1420    -0.3060 ca         1 DBO      -0.099500
     22 C45         -1.5280    -0.6550     1.3100 c          1 DBO       0.616700
     23 O46         -1.5640    -1.5030     2.1920 o          1 DBO      -0.606100
     24 C47         -2.6670     0.2480     0.9660 cc         1 DBO      -0.138600
     25 C48         -3.8760     0.0860     1.6340 cd         1 DBO      -0.022000
     26 C50         -5.2050     0.5930     1.2400 ca         1 DBO      -0.078000
     27 C51         -5.5390     0.9340    -0.0910 ca         1 DBO       0.245300
     28 C52         -6.8440     1.3360    -0.4200 ca         1 DBO      -0.121000
     29 C54         -7.8360     1.4040     0.5720 ca         1 DBO      -0.089000
     30 C56         -7.5210     1.0460     1.8930 ca         1 DBO      -0.120000
     31 C58         -6.2190     0.6310     2.2200 ca         1 DBO      -0.078000
     32 O60         -4.6220     0.8290    -1.1030 os         1 DBO      -0.510600
     33 C61         -3.4810     1.5730    -1.0350 ca         1 DBO       0.235300
     34 C62         -2.5430     1.3560    -0.0040 ca         1 DBO      -0.061000
     35 C63         -1.4500     2.2490     0.0980 ca         1 DBO      -0.086000
     36 C65         -1.2710     3.2830    -0.8370 ca         1 DBO      -0.112000
     37 C67         -2.1900     3.4540    -1.8830 ca         1 DBO      -0.094000
     38 C69         -3.3010     2.6020    -1.9740 ca         1 DBO      -0.118000
     39 HN1         -0.4790     0.2380    -0.1910 hn         1 DBO       0.331500
     40 H3           0.7110    -2.0220     1.3700 h1         1 DBO       0.086700
     41 H5           1.9140     0.0830     1.6660 h1         1 DBO       0.073700
     42 HO7          3.2390     0.5160    -0.3790 ho         1 DBO       0.450000
     43 H91          3.4340    -2.0360     0.0960 h1         1 DBO       0.037700
     44 H92          3.3870    -1.7890     1.8500 h1         1 DBO       0.037700
     45 H12          4.5550     0.2740     1.5700 hn         1 DBO       0.420000
     46 H141         5.9140    -1.6830    -0.1710 h1         1 DBO       0.036200
     47 H142         6.0110    -1.6360     1.5960 h1         1 DBO       0.036200
     48 H18          6.7370     0.3100    -1.5220 ha         1 DBO       0.127000
     49 H21          9.8250     2.6720     0.3680 ha         1 DBO       0.111000
     50 H23          9.2590     1.6500     2.5620 ha         1 DBO       0.112000
     51 H25          7.4420    -0.0380     2.7260 ha         1 DBO       0.108000
     52 H271         9.4070     1.5820    -2.6020 hc         1 DBO       0.042367
     53 H272         7.7740     2.2620    -2.7150 hc         1 DBO       0.042367
     54 H273         9.0680     3.1960    -1.9540 hc         1 DBO       0.042367
     55 H311         1.0240    -1.6000    -1.6380 hc         1 DBO       0.049200
     56 H312         1.5960    -2.9620    -0.6970 hc         1 DBO       0.049200
     57 H35         -1.2910    -1.4930    -2.4190 ha         1 DBO       0.109000
     58 H37         -3.4620    -2.6530    -2.7530 ha         1 DBO       0.113000
     59 H39         -3.9530    -4.7680    -1.5260 ha         1 DBO       0.111000
     60 H41         -2.2630    -5.7180     0.0410 ha         1 DBO       0.113000
     61 H43         -0.0900    -4.5590     0.3860 ha         1 DBO       0.109000
     62 H48         -3.8860    -0.6210     2.4570 ha         1 DBO       0.139000
     63 H52         -7.0860     1.5890    -1.4480 ha         1 DBO       0.128000
     64 H54         -8.8450     1.7180     0.3160 ha         1 DBO       0.117000
     65 H56         -8.2890     1.0830     2.6630 ha         1 DBO       0.118000
     66 H58         -5.9950     0.3450     3.2460 ha         1 DBO       0.121000
     67 H63         -0.7310     2.1470     0.9080 ha         1 DBO       0.124000
     68 H65         -0.4180     3.9530    -0.7490 ha         1 DBO       0.120000
     69 H67         -2.0530     4.2550    -2.6070 ha         1 DBO       0.117000
     70 H69         -4.0370     2.7490    -2.7590 ha         1 DBO       0.127000
@<TRIPOS>BOND
     1     1     2 1   
     2     1    22 1   
     3     1    39 1   
     4     2     3 1   
     5     2    15 1   
     6     2    40 1   
     7     3     4 1   
     8     3     5 1   
     9     3    41 1   
    10     4    42 1   
    11     5     6 1   
    12     5    43 1   
    13     5    44 1   
    14     6     7 1   
    15     6    45 1   
    16     7     8 1   
    17     7    46 1   
    18     7    47 1   
    19     8     9 ar  
    20     8    13 ar  
    21     9    10 ar  
    22     9    48 1   
    23    10    11 ar  
    24    10    14 1   
    25    11    12 ar  
    26    11    49 1   
    27    12    13 ar  
    28    12    50 1   
    29    13    51 1   
    30    14    52 1   
    31    14    53 1   
    32    14    54 1   
    33    15    16 1   
    34    15    55 1   
    35    15    56 1   
    36    16    17 ar  
    37    16    21 ar  
    38    17    18 ar  
    39    17    57 1   
    40    18    19 ar  
    41    18    58 1   
    42    19    20 ar  
    43    19    59 1   
    44    20    21 ar  
    45    20    60 1   
    46    21    61 1   
    47    22    23 2   
    48    22    24 1   
    49    24    25 2   
    50    24    34 1   
    51    25    26 1   
    52    25    62 1   
    53    26    27 ar  
    54    26    31 ar  
    55    27    28 ar  
    56    27    32 1   
    57    28    29 ar  
    58    28    63 1   
    59    29    30 ar  
    60    29    64 1   
    61    30    31 ar  
    62    30    65 1   
    63    31    66 1   
    64    32    33 1   
    65    33    34 ar  
    66    33    38 ar  
    67    34    35 ar  
    68    35    36 ar  
    69    35    67 1   
    70    36    37 ar  
    71    36    68 1   
    72    37    38 ar  
    73    37    69 1   
    74    38    70 1   
@<TRIPOS>SUBSTRUCTURE
     1 DBO         1 TEMP              0 ****  ****    0 ROOT
