@<TRIPOS>MOLECULE
DBP
   19    19     1     0     0
SMALL
No Charge or Current Charge


@<TRIPOS>ATOM
      1 N            0.7700    -0.6760     2.9630 n8         1 DBP      -0.999200
      2 CB           0.3850     0.5700     2.2720 c3         1 DBP       0.194100
      3 CG          -0.0630     0.3070     0.8380 ca         1 DBP      -0.049300
      4 CD1         -1.4290     0.1430     0.5360 ca         1 DBP      -0.157000
      5 CE1         -1.8410    -0.0940    -0.7870 ca         1 DBP      -0.074000
      6 CD2          0.8860     0.2310    -0.2020 ca         1 DBP      -0.154000
      7 CE2          0.4770    -0.0060    -1.5230 ca         1 DBP       0.280000
      8 CZ          -0.8850    -0.1680    -1.8150 ca         1 DBP      -0.177000
      9 NE2          1.4030    -0.0800    -2.5290 nv         1 DBP      -1.068000
     10 HN1         -0.0520    -1.2890     3.0110 hn         1 DBP       0.395500
     11 HN21         0.9720    -0.4610     3.9470 hn         1 DBP       0.395500
     12 HB11        -0.4300     1.0490     2.8330 h1         1 DBP       0.035200
     13 HB21         1.2440     1.2560     2.2730 h1         1 DBP       0.035200
     14 HD11        -2.1740     0.1990     1.3270 ha         1 DBP       0.108000
     15 HC11        -2.8970    -0.2200    -1.0140 ha         1 DBP       0.108000
     16 HC21         1.9420     0.3550     0.0230 ha         1 DBP       0.130000
     17 HCZ1        -1.2090    -0.3500    -2.8360 ha         1 DBP       0.110000
     18 HE21         1.1190    -0.3830    -3.4590 hn         1 DBP       0.443000
     19 HE22         2.3970    -0.1020    -2.3080 hn         1 DBP       0.443000
@<TRIPOS>BOND
     1     1     2 1   
     2     1    10 1   
     3     1    11 1   
     4     2     3 1   
     5     2    12 1   
     6     2    13 1   
     7     3     4 ar  
     8     3     6 ar  
     9     4     5 ar  
    10     4    14 1   
    11     5     8 ar  
    12     5    15 1   
    13     6     7 ar  
    14     6    16 1   
    15     7     8 ar  
    16     7     9 1   
    17     8    17 1   
    18     9    18 1   
    19     9    19 1   
@<TRIPOS>SUBSTRUCTURE
     1 DBP         1 TEMP              0 ****  ****    0 ROOT
