@<TRIPOS>MOLECULE
DBP
   19    19     1     0     0
SMALL
bcc


@<TRIPOS>ATOM
      1 N            1.2940    -0.3370     2.7100 n8         1 DBP      -0.888800
      2 CB           0.1100     0.4100     2.3260 c3         1 DBP       0.194100
      3 CG          -0.2320     0.2500     0.8640 ca         1 DBP      -0.049300
      4 CD1         -1.5600     0.3470     0.4510 ca         1 DBP      -0.175000
      5 CE1         -1.8690     0.2410    -0.8980 ca         1 DBP      -0.092000
      6 CD2          0.7620     0.0380    -0.0820 ca         1 DBP      -0.172000
      7 CE2          0.4600    -0.0720    -1.4440 ca         1 DBP       0.141600
      8 CZ          -0.8780     0.0340    -1.8430 ca         1 DBP      -0.195000
      9 NE2          1.4660    -0.2300    -2.3780 nv         1 DBP      -0.819200
     10 HN1          1.0870    -1.3280     2.7050 hn         1 DBP       0.340300
     11 HN21         1.5370    -0.1070     3.6650 hn         1 DBP       0.340300
     12 HB11        -0.7820     0.1650     2.9190 h1         1 DBP       0.035200
     13 HB21         0.3100     1.4690     2.5170 h1         1 DBP       0.035200
     14 HD11        -2.3470     0.4960     1.1810 ha         1 DBP       0.126000
     15 HC11        -2.9010     0.3100    -1.2200 ha         1 DBP       0.126000
     16 HC21         1.7920    -0.0520     0.2470 ha         1 DBP       0.148000
     17 HCZ1        -1.1340    -0.0530    -2.8930 ha         1 DBP       0.128000
     18 HE21         1.1830    -0.6570    -3.2460 hn         1 DBP       0.387800
     19 HE22         2.3160    -0.6430    -2.0290 hn         1 DBP       0.387800
@<TRIPOS>BOND
     1     1     2 1   
     2     1    10 1   
     3     1    11 1   
     4     2     3 1   
     5     2    12 1   
     6     2    13 1   
     7     3     4 ar  
     8     3     6 ar  
     9     4     5 ar  
    10     4    14 1   
    11     5     8 ar  
    12     5    15 1   
    13     6     7 ar  
    14     6    16 1   
    15     7     8 ar  
    16     7     9 1   
    17     8    17 1   
    18     9    18 1   
    19     9    19 1   
@<TRIPOS>SUBSTRUCTURE
     1 DBP         1 TEMP              0 ****  ****    0 ROOT
