@<TRIPOS>MOLECULE
DBQ
   29    31     1     0     0
SMALL
abcg2


@<TRIPOS>ATOM
      1 O1           4.0230    -0.6210     1.3990 o          1 DBQ      -0.587000
      2 C5           3.0540    -0.7890     0.6610 c          1 DBQ       0.596600
      3 N2           2.6180    -1.9980     0.2830 ns         1 DBQ      -0.491900
      4 C6           1.6910    -2.2250    -0.8050 c3         1 DBQ       0.112000
      5 C7           0.2480    -1.8990    -0.4710 c3         1 DBQ      -0.066200
      6 C4           2.3130     0.3590     0.1250 cc         1 DBQ      -0.229600
      7 N1           2.9520     1.5560     0.0670 na         1 DBQ      -0.064000
      8 C1           2.1220     2.5100    -0.4070 cc         1 DBQ      -0.197000
      9 C2           0.8980     1.9360    -0.6340 cd         1 DBQ      -0.134000
     10 C3           0.9940     0.5560    -0.2980 cd         1 DBQ      -0.088800
     11 C8          -0.0810    -0.4300    -0.3220 cf         1 DBQ       0.082600
     12 C9          -1.3790    -0.0430    -0.2090 cc         1 DBQ      -0.003600
     13 N4          -1.8420     1.2550    -0.0390 nc         1 DBQ      -0.672300
     14 C11         -3.1340     1.1780     0.0370 cd         1 DBQ       0.665800
     15 N5          -3.9660     2.2030     0.2450 nv         1 DBQ      -1.042200
     16 N3          -3.6160    -0.1050    -0.0730 ns         1 DBQ      -0.477400
     17 C10         -2.5530    -0.9630    -0.2250 c          1 DBQ       0.545200
     18 O2          -2.6380    -2.1700    -0.3370 o          1 DBQ      -0.524000
     19 HN2          3.1290    -2.7910     0.6390 hn         1 DBQ       0.320500
     20 H61          1.7510    -3.2840    -1.0470 h1         1 DBQ       0.050200
     21 H62          2.0100    -1.6800    -1.6970 h1         1 DBQ       0.050200
     22 H71         -0.0350    -2.4450     0.4330 hc         1 DBQ       0.076700
     23 H72         -0.3640    -2.3200    -1.2700 hc         1 DBQ       0.076700
     24 HN1          3.9150     1.6950     0.3300 hn         1 DBQ       0.364000
     25 H1           2.4560     3.5240    -0.5520 h4         1 DBQ       0.149000
     26 H2           0.0210     2.4410    -0.9950 ha         1 DBQ       0.154000
     27 HN51        -3.5950     3.1350     0.1680 hn         1 DBQ       0.495500
     28 HN52        -4.9540     2.0990     0.0870 hn         1 DBQ       0.495500
     29 HN3         -4.5830    -0.3880    -0.0250 hn         1 DBQ       0.341500
@<TRIPOS>BOND
     1     1     2 2   
     2     2     3 1   
     3     2     6 1   
     4     3     4 1   
     5     3    19 1   
     6     4     5 1   
     7     4    20 1   
     8     4    21 1   
     9     5    11 1   
    10     5    22 1   
    11     5    23 1   
    12     6     7 1   
    13     6    10 2   
    14     7     8 1   
    15     7    24 1   
    16     8     9 2   
    17     8    25 1   
    18     9    10 1   
    19     9    26 1   
    20    10    11 1   
    21    11    12 2   
    22    12    13 1   
    23    12    17 1   
    24    13    14 2   
    25    14    15 1   
    26    14    16 1   
    27    15    27 1   
    28    15    28 1   
    29    16    17 1   
    30    16    29 1   
    31    17    18 2   
@<TRIPOS>SUBSTRUCTURE
     1 DBQ         1 TEMP              0 ****  ****    0 ROOT
