@<TRIPOS>MOLECULE
DBQ
   29    31     1     0     0
SMALL
No Charge or Current Charge


@<TRIPOS>ATOM
      1 O1           3.6120    -0.6110     1.8210 o          1 DBQ      -0.587000
      2 C5           2.7630    -0.7060     0.9490 c          1 DBQ       0.596600
      3 N2           2.3020    -1.9430     0.5730 ns         1 DBQ      -0.491900
      4 C6           1.7340    -2.2420    -0.7420 c3         1 DBQ       0.112000
      5 C7           0.2550    -1.8600    -0.8390 c3         1 DBQ      -0.066200
      6 C4           2.2580     0.4640     0.1880 cc         1 DBQ      -0.229600
      7 N1           2.8800     1.7110     0.0630 na         1 DBQ      -0.064000
      8 C1           2.1570     2.5360    -0.7960 cc         1 DBQ      -0.197000
      9 C2           1.0380     1.8260    -1.1210 cd         1 DBQ      -0.134000
     10 C3           1.0550     0.5600    -0.4900 cd         1 DBQ      -0.088800
     11 C8          -0.0620    -0.4070    -0.5060 cf         1 DBQ       0.082600
     12 C9          -1.3690    -0.0830    -0.1940 cc         1 DBQ      -0.003600
     13 N4          -1.7430     1.1850     0.2570 nc         1 DBQ      -0.672300
     14 C11         -3.0370     1.0580     0.3840 cd         1 DBQ       0.665800
     15 N5          -3.8020     2.0570     0.7900 nv         1 DBQ      -1.042200
     16 N3          -3.5420    -0.1250     0.0530 ns         1 DBQ      -0.477400
     17 C10         -2.5710    -0.9620    -0.3480 c          1 DBQ       0.545200
     18 O2          -2.7170    -2.1100    -0.7380 o          1 DBQ      -0.524000
     19 HN2          2.6480    -2.7180     1.1250 hn         1 DBQ       0.320500
     20 H61          1.8440    -3.3170    -0.9340 h1         1 DBQ       0.050200
     21 H62          2.3070    -1.7070    -1.5110 h1         1 DBQ       0.050200
     22 H71         -0.2780    -2.5280    -0.1530 hc         1 DBQ       0.076700
     23 H72         -0.0990    -2.0980    -1.8490 hc         1 DBQ       0.076700
     24 HN1          3.7630     1.9600     0.5010 hn         1 DBQ       0.364000
     25 H1           2.4760     3.5360    -1.0660 h4         1 DBQ       0.149000
     26 H2           0.2250     2.2000    -1.7380 ha         1 DBQ       0.154000
     27 HN51        -3.3540     2.9660     0.7840 hn         1 DBQ       0.495500
     28 HN52        -4.7770     2.0440     0.5160 hn         1 DBQ       0.495500
     29 HN3         -4.5120    -0.3910     0.0890 hn         1 DBQ       0.341500
@<TRIPOS>BOND
     1     1     2 2   
     2     2     3 1   
     3     2     6 1   
     4     3     4 1   
     5     3    19 1   
     6     4     5 1   
     7     4    20 1   
     8     4    21 1   
     9     5    11 1   
    10     5    22 1   
    11     5    23 1   
    12     6     7 1   
    13     6    10 2   
    14     7     8 1   
    15     7    24 1   
    16     8     9 2   
    17     8    25 1   
    18     9    10 1   
    19     9    26 1   
    20    10    11 1   
    21    11    12 2   
    22    12    13 1   
    23    12    17 1   
    24    13    14 2   
    25    14    15 1   
    26    14    16 1   
    27    15    27 1   
    28    15    28 1   
    29    16    17 1   
    30    16    29 1   
    31    17    18 2   
@<TRIPOS>SUBSTRUCTURE
     1 DBQ         1 TEMP              0 ****  ****    0 ROOT
