@<TRIPOS>MOLECULE
DBR
   71    75     1     0     0
SMALL
No Charge or Current Charge


@<TRIPOS>ATOM
      1 C1           6.5240     2.9710    -0.5310 c6         1 DBR      -0.069400
      2 C2           7.1270     1.5740    -0.8620 c6         1 DBR      -0.060033
      3 C3           7.7370     0.9550     0.4260 c6         1 DBR      -0.069400
      4 C4           6.0060     0.6380    -1.4010 c6         1 DBR      -0.058400
      5 C5           5.4230     2.8290     0.5610 c6         1 DBR      -0.060033
      6 C6           6.0420     2.2040     1.8420 c6         1 DBR      -0.069400
      7 C7           4.2850     1.9060     0.0360 c6         1 DBR      -0.058400
      8 C8           6.6270     0.8050     1.5020 c6         1 DBR      -0.060033
      9 C9           4.8500     0.5000    -0.3550 c6         1 DBR      -0.123000
     10 C10          5.4930    -0.1080     0.9520 c6         1 DBR      -0.058400
     11 C11          3.7080    -0.3980    -0.9260 c          1 DBR       0.604100
     12 N12          3.4110    -1.5650    -0.2500 ns         1 DBR      -0.511900
     13 C13          2.3420    -2.4960    -0.6140 c3         1 DBR       0.106000
     14 C14          0.9590    -1.9960    -0.1490 c3         1 DBR      -0.096400
     15 C15         -0.1860    -2.9700    -0.5070 c3         1 DBR      -0.079400
     16 C16         -1.5650    -2.4670    -0.0420 c3         1 DBR       0.199800
     17 O17          3.0960    -0.0840    -1.9390 o          1 DBR      -0.606100
     18 N31         -2.6010    -3.4440    -0.4120 n7         1 DBR      -0.865300
     19 S33         -4.1870    -3.1960     0.0560 sy         1 DBR       1.145600
     20 O32         -4.9500    -3.3180    -1.1870 o          1 DBR      -0.533500
     21 O34         -4.4140    -4.1080     1.1800 o          1 DBR      -0.533500
     22 N28         -4.1430     3.4500    -0.0140 nh         1 DBR      -0.780400
     23 C18         -4.2090    -1.4640     0.6150 ca         1 DBR      -0.305500
     24 C19         -4.3330    -1.2660     2.0070 ca         1 DBR       0.016000
     25 C20         -4.3970     0.0230     2.5450 ca         1 DBR      -0.153000
     26 C21         -4.3330     1.1400     1.7070 ca         1 DBR      -0.026000
     27 C22         -4.1890     0.9840     0.3110 ca         1 DBR      -0.067000
     28 C23         -4.1300    -0.3250    -0.2500 ca         1 DBR       0.056000
     29 C24         -3.9720    -0.4430    -1.6530 ca         1 DBR      -0.160000
     30 C25         -3.9020     0.6900    -2.4740 ca         1 DBR      -0.054000
     31 C26         -3.9750     1.9670    -1.9140 ca         1 DBR      -0.172000
     32 C27         -4.1100     2.1300    -0.5280 ca         1 DBR       0.292000
     33 C28         -2.9520     4.0150     0.6550 c3         1 DBR       0.171100
     34 C29         -5.1660     4.4070    -0.4830 c3         1 DBR       0.171100
     35 H11A         7.3150     3.6500    -0.1830 hc         1 DBR       0.041200
     36 H12A         6.1030     3.4270    -1.4370 hc         1 DBR       0.041200
     37 H2           7.9110     1.6830    -1.6240 hc         1 DBR       0.051367
     38 H31A         8.1840    -0.0240     0.2020 hc         1 DBR       0.041200
     39 H32          8.5510     1.5890     0.8040 hc         1 DBR       0.041200
     40 H41          6.4210    -0.3500    -1.6450 hc         1 DBR       0.046533
     41 H42          5.6130     1.0460    -2.3430 hc         1 DBR       0.046533
     42 H5           5.0110     3.8200     0.7990 hc         1 DBR       0.051367
     43 H61          5.2800     2.1170     2.6290 hc         1 DBR       0.041200
     44 H62          6.8280     2.8580     2.2430 hc         1 DBR       0.041200
     45 H71          3.8090     2.3760    -0.8350 hc         1 DBR       0.046533
     46 H72          3.4980     1.8040     0.7970 hc         1 DBR       0.046533
     47 H8           7.0540     0.3560     2.4100 hc         1 DBR       0.051367
     48 H101         4.7290    -0.2390     1.7320 hc         1 DBR       0.046533
     49 H102         5.9060    -1.1070     0.7480 hc         1 DBR       0.046533
     50 H12          3.9610    -1.7640     0.5760 hn         1 DBR       0.312500
     51 H131         2.5540    -3.4690    -0.1500 h1         1 DBR       0.052200
     52 H132         2.3410    -2.6350    -1.7030 h1         1 DBR       0.052200
     53 H141         0.7550    -1.0190    -0.6050 hc         1 DBR       0.044200
     54 H142         0.9790    -1.8460     0.9370 hc         1 DBR       0.044200
     55 H151         0.0130    -3.9470    -0.0480 hc         1 DBR       0.055700
     56 H152        -0.2030    -3.1210    -1.5940 hc         1 DBR       0.055700
     57 H161        -1.7490    -1.4880    -0.5030 h1         1 DBR       0.052700
     58 H162        -1.5390    -2.3270     1.0480 h1         1 DBR       0.052700
     59 H31         -2.7000    -3.4860    -1.4240 hn         1 DBR       0.481000
     60 H19         -4.3910    -2.1120     2.6910 ha         1 DBR       0.144000
     61 H20         -4.5020     0.1570     3.6190 ha         1 DBR       0.122000
     62 H21         -4.3980     2.1270     2.1570 ha         1 DBR       0.132000
     63 H24         -3.8840    -1.4020    -2.1440 ha         1 DBR       0.126000
     64 H25         -3.7810     0.5750    -3.5500 ha         1 DBR       0.118000
     65 H26         -3.9070     2.8390    -2.5580 ha         1 DBR       0.120000
     66 H281        -3.2430     4.5380     1.5760 h1         1 DBR       0.037533
     67 H282        -2.2460     3.2190     0.9250 h1         1 DBR       0.037533
     68 H283        -2.4370     4.7230    -0.0080 h1         1 DBR       0.037533
     69 H291        -6.0710     3.8760    -0.8060 h1         1 DBR       0.037533
     70 H292        -5.4490     5.0930     0.3260 h1         1 DBR       0.037533
     71 H293        -4.7850     4.9960    -1.3280 h1         1 DBR       0.037533
@<TRIPOS>BOND
     1     1     2 1   
     2     1     5 1   
     3     1    35 1   
     4     1    36 1   
     5     2     3 1   
     6     2     4 1   
     7     2    37 1   
     8     3     8 1   
     9     3    38 1   
    10     3    39 1   
    11     4     9 1   
    12     4    40 1   
    13     4    41 1   
    14     5     6 1   
    15     5     7 1   
    16     5    42 1   
    17     6     8 1   
    18     6    43 1   
    19     6    44 1   
    20     7     9 1   
    21     7    45 1   
    22     7    46 1   
    23     8    10 1   
    24     8    47 1   
    25     9    10 1   
    26     9    11 1   
    27    10    48 1   
    28    10    49 1   
    29    11    12 1   
    30    11    17 2   
    31    12    13 1   
    32    12    50 1   
    33    13    14 1   
    34    13    51 1   
    35    13    52 1   
    36    14    15 1   
    37    14    53 1   
    38    14    54 1   
    39    15    16 1   
    40    15    55 1   
    41    15    56 1   
    42    16    18 1   
    43    16    57 1   
    44    16    58 1   
    45    18    19 1   
    46    18    59 1   
    47    19    20 2   
    48    19    21 2   
    49    19    23 1   
    50    22    32 1   
    51    22    33 1   
    52    22    34 1   
    53    23    24 ar  
    54    23    28 ar  
    55    24    25 ar  
    56    24    60 1   
    57    25    26 ar  
    58    25    61 1   
    59    26    27 ar  
    60    26    62 1   
    61    27    28 ar  
    62    27    32 ar  
    63    28    29 ar  
    64    29    30 ar  
    65    29    63 1   
    66    30    31 ar  
    67    30    64 1   
    68    31    32 ar  
    69    31    65 1   
    70    33    66 1   
    71    33    67 1   
    72    33    68 1   
    73    34    69 1   
    74    34    70 1   
    75    34    71 1   
@<TRIPOS>SUBSTRUCTURE
     1 DBR         1 TEMP              0 ****  ****    0 ROOT
