@<TRIPOS>MOLECULE
DBR
   71    75     1     0     0
SMALL
bcc


@<TRIPOS>ATOM
      1 C1           7.2800     2.6790    -0.2680 c6         1 DBR      -0.069400
      2 C2           7.8500     1.2980    -0.5960 c6         1 DBR      -0.060033
      3 C3           8.2510     0.5930     0.7000 c6         1 DBR      -0.069400
      4 C4           6.7930     0.4680    -1.3270 c6         1 DBR      -0.058400
      5 C5           6.0470     2.5180     0.6220 c6         1 DBR      -0.060033
      6 C6           6.4400     1.8050     1.9180 c6         1 DBR      -0.069400
      7 C7           4.9880     1.6910    -0.1110 c6         1 DBR      -0.058400
      8 C8           7.0180     0.4270     1.5880 c6         1 DBR      -0.060033
      9 C9           5.5460     0.2940    -0.4510 c6         1 DBR      -0.123000
     10 C10          5.9610    -0.4060     0.8580 c6         1 DBR      -0.058400
     11 C11          4.4950    -0.5230    -1.1980 c          1 DBR       0.671100
     12 N12          3.3540    -0.7660    -0.5330 ns         1 DBR      -0.578900
     13 C13          2.2410    -1.4820    -1.1210 c3         1 DBR       0.106000
     14 C14          1.0610    -1.5160    -0.1640 c3         1 DBR      -0.096400
     15 C15         -0.1340    -2.2270    -0.7830 c3         1 DBR      -0.079400
     16 C16         -1.3300    -2.2250     0.1560 c3         1 DBR       0.199800
     17 O17          4.6610    -0.9310    -2.3410 o          1 DBR      -0.606100
     18 N31         -2.4570    -2.8930    -0.4920 n7         1 DBR      -0.810100
     19 S33         -3.8640    -3.0600     0.3460 sy         1 DBR       1.287200
     20 O32         -4.8410    -3.5990    -0.5880 o          1 DBR      -0.604300
     21 O34         -3.5550    -3.8090     1.5520 o          1 DBR      -0.604300
     22 N28         -5.2370     3.2830    -0.0040 nh         1 DBR      -0.642000
     23 C18         -4.3490    -1.4220     0.8480 ca         1 DBR      -0.305500
     24 C19         -4.3930    -1.1760     2.1950 ca         1 DBR      -0.002000
     25 C20         -4.7410     0.1000     2.6660 ca         1 DBR      -0.171000
     26 C21         -4.9680     1.1140     1.7800 ca         1 DBR      -0.044000
     27 C22         -4.8760     0.9080     0.3840 ca         1 DBR      -0.067000
     28 C23         -4.6240    -0.4030    -0.1120 ca         1 DBR       0.056000
     29 C24         -4.6760    -0.6200    -1.5100 ca         1 DBR      -0.178000
     30 C25         -4.9500     0.4200    -2.3540 ca         1 DBR      -0.072000
     31 C26         -5.1370     1.7260    -1.8760 ca         1 DBR      -0.190000
     32 C27         -5.0800     1.9940    -0.5280 ca         1 DBR       0.153600
     33 C28         -4.0190     3.8790     0.5310 c3         1 DBR       0.171100
     34 C29         -5.9750     4.2250    -0.8170 c3         1 DBR       0.171100
     35 H11A         8.0350     3.2870     0.2420 hc         1 DBR       0.041200
     36 H12A         7.0130     3.2090    -1.1880 hc         1 DBR       0.041200
     37 H2           8.7250     1.4040    -1.2440 hc         1 DBR       0.051367
     38 H31A         8.6940    -0.3840     0.4790 hc         1 DBR       0.041200
     39 H32          9.0150     1.1760     1.2250 hc         1 DBR       0.041200
     40 H41          7.2060    -0.5100    -1.5890 hc         1 DBR       0.046533
     41 H42          6.5240     0.9570    -2.2670 hc         1 DBR       0.046533
     42 H5           5.6280     3.5010     0.8560 hc         1 DBR       0.051367
     43 H61          5.5690     1.7040     2.5730 hc         1 DBR       0.041200
     44 H62          7.1780     2.4010     2.4650 hc         1 DBR       0.041200
     45 H71          4.6820     2.2010    -1.0300 hc         1 DBR       0.046533
     46 H72          4.0940     1.6140     0.5160 hc         1 DBR       0.046533
     47 H8           7.2950    -0.0870     2.5130 hc         1 DBR       0.051367
     48 H101         5.0990    -0.5470     1.5200 hc         1 DBR       0.046533
     49 H102         6.3520    -1.4040     0.6370 hc         1 DBR       0.046533
     50 H12          3.2450    -0.4230     0.4070 hn         1 DBR       0.312500
     51 H131         2.5420    -2.5020    -1.3770 h1         1 DBR       0.052200
     52 H132         1.9420    -0.9970    -2.0550 h1         1 DBR       0.052200
     53 H141         0.7810    -0.4930     0.1040 hc         1 DBR       0.044200
     54 H142         1.3520    -2.0190     0.7630 hc         1 DBR       0.044200
     55 H151         0.1290    -3.2570    -1.0350 hc         1 DBR       0.055700
     56 H152        -0.4070    -1.7280    -1.7190 hc         1 DBR       0.055700
     57 H161        -1.5780    -1.1930     0.4320 h1         1 DBR       0.052700
     58 H162        -1.0840    -2.7630     1.0710 h1         1 DBR       0.052700
     59 H31         -2.6160    -2.5900    -1.4480 hn         1 DBR       0.425800
     60 H19         -4.1770    -1.9600     2.9070 ha         1 DBR       0.162000
     61 H20         -4.8240     0.2710     3.7300 ha         1 DBR       0.140000
     62 H21         -5.2500     2.0910     2.1470 ha         1 DBR       0.150000
     63 H24         -4.5540    -1.6050    -1.9310 ha         1 DBR       0.144000
     64 H25         -5.0020     0.2400    -3.4200 ha         1 DBR       0.136000
     65 H26         -5.3050     2.5230    -2.5880 ha         1 DBR       0.138000
     66 H281        -4.2740     4.7190     1.1770 h1         1 DBR       0.037533
     67 H282        -3.4530     3.1620     1.1200 h1         1 DBR       0.037533
     68 H283        -3.3630     4.2490    -0.2670 h1         1 DBR       0.037533
     69 H291        -6.9200     3.7900    -1.1400 h1         1 DBR       0.037533
     70 H292        -6.1980     5.1070    -0.2160 h1         1 DBR       0.037533
     71 H293        -5.4280     4.5650    -1.7060 h1         1 DBR       0.037533
@<TRIPOS>BOND
     1     1     2 1   
     2     1     5 1   
     3     1    35 1   
     4     1    36 1   
     5     2     3 1   
     6     2     4 1   
     7     2    37 1   
     8     3     8 1   
     9     3    38 1   
    10     3    39 1   
    11     4     9 1   
    12     4    40 1   
    13     4    41 1   
    14     5     6 1   
    15     5     7 1   
    16     5    42 1   
    17     6     8 1   
    18     6    43 1   
    19     6    44 1   
    20     7     9 1   
    21     7    45 1   
    22     7    46 1   
    23     8    10 1   
    24     8    47 1   
    25     9    10 1   
    26     9    11 1   
    27    10    48 1   
    28    10    49 1   
    29    11    12 1   
    30    11    17 2   
    31    12    13 1   
    32    12    50 1   
    33    13    14 1   
    34    13    51 1   
    35    13    52 1   
    36    14    15 1   
    37    14    53 1   
    38    14    54 1   
    39    15    16 1   
    40    15    55 1   
    41    15    56 1   
    42    16    18 1   
    43    16    57 1   
    44    16    58 1   
    45    18    19 1   
    46    18    59 1   
    47    19    20 2   
    48    19    21 2   
    49    19    23 1   
    50    22    32 1   
    51    22    33 1   
    52    22    34 1   
    53    23    24 ar  
    54    23    28 ar  
    55    24    25 ar  
    56    24    60 1   
    57    25    26 ar  
    58    25    61 1   
    59    26    27 ar  
    60    26    62 1   
    61    27    28 ar  
    62    27    32 ar  
    63    28    29 ar  
    64    29    30 ar  
    65    29    63 1   
    66    30    31 ar  
    67    30    64 1   
    68    31    32 ar  
    69    31    65 1   
    70    33    66 1   
    71    33    67 1   
    72    33    68 1   
    73    34    69 1   
    74    34    70 1   
    75    34    71 1   
@<TRIPOS>SUBSTRUCTURE
     1 DBR         1 TEMP              0 ****  ****    0 ROOT
