@<TRIPOS>MOLECULE
DBS
   27    27     1     0     0
SMALL
abcg2


@<TRIPOS>ATOM
      1 O4          57.3270   103.0110    36.4290 oh         1 DBS      -0.548100
      2 C4          57.1550   103.0860    37.7630 ca         1 DBS       0.083100
      3 C7          58.0880   102.4770    38.5880 ca         1 DBS      -0.134000
      4 C1          56.0620   103.7630    38.3210 ca         1 DBS       0.045100
      5 O1          55.1520   104.3240    37.4660 oh         1 DBS      -0.548100
      6 C16         55.8780   103.7860    39.7040 ca         1 DBS      -0.097600
      7 C13         56.8150   103.1420    40.5140 ca         1 DBS      -0.094000
      8 C10         57.9170   102.5140    39.9630 ca         1 DBS      -0.111000
      9 C19         54.7180   104.4310    40.4170 c          1 DBS       0.595700
     10 O7          54.3950   104.0190    41.5290 o          1 DBS      -0.666100
     11 N1          54.1170   105.4650    39.8290 ns         1 DBS      -0.431900
     12 C22         52.9750   106.1520    40.3870 c3         1 DBS      -0.045300
     13 C28         53.3560   107.0930    41.5180 c3         1 DBS       0.163600
     14 O13         54.1880   108.1070    40.9990 oh         1 DBS      -0.646000
     15 C25         52.2500   106.9360    39.2630 c          1 DBS       0.730000
     16 O10         51.2000   107.5050    39.6040 o          1 DBS      -0.723000
     17 O15         52.7760   106.9280    38.1330 o          1 DBS      -0.723000
     18 HO4         56.5310   103.3070    35.9700 ho         1 DBS       0.471000
     19 HC7         58.9360   101.9680    38.1470 ha         1 DBS       0.116000
     20 HO1         55.5400   105.0800    37.0040 ho         1 DBS       0.467000
     21 HC13        56.6770   103.1460    41.5860 ha         1 DBS       0.137000
     22 HC10        58.6450   102.0360    40.6050 ha         1 DBS       0.106000
     23 HN1         54.3240   105.7130    38.8730 hn         1 DBS       0.351500
     24 HC22        52.2740   105.4200    40.8030 h1         1 DBS       0.057700
     25 H281        53.8590   106.5290    42.3120 h1         1 DBS       0.016700
     26 H282        52.4330   107.4990    41.9450 h1         1 DBS       0.016700
     27 HO13        54.4200   108.6990    41.7200 ho         1 DBS       0.409000
@<TRIPOS>BOND
     1     1     2 1   
     2     1    18 1   
     3     2     3 ar  
     4     2     4 ar  
     5     3     8 ar  
     6     3    19 1   
     7     4     5 1   
     8     4     6 ar  
     9     5    20 1   
    10     6     7 ar  
    11     6     9 1   
    12     7     8 ar  
    13     7    21 1   
    14     8    22 1   
    15     9    10 2   
    16     9    11 1   
    17    11    12 1   
    18    11    23 1   
    19    12    13 1   
    20    12    15 1   
    21    12    24 1   
    22    13    14 1   
    23    13    25 1   
    24    13    26 1   
    25    14    27 1   
    26    15    16 1   
    27    15    17 1   
@<TRIPOS>SUBSTRUCTURE
     1 DBS         1 TEMP              0 ****  ****    0 ROOT
