@<TRIPOS>MOLECULE
DBS
   27    27     1     0     0
SMALL
No Charge or Current Charge


@<TRIPOS>ATOM
      1 O4          57.3730   103.5620    36.3990 oh         1 DBS      -0.548100
      2 C4          57.1360   103.3230    37.7270 ca         1 DBS       0.083100
      3 C7          57.9240   102.3920    38.4200 ca         1 DBS      -0.134000
      4 C1          56.0980   104.0170    38.3870 ca         1 DBS       0.045100
      5 O1          55.3790   104.9060    37.6370 oh         1 DBS      -0.548100
      6 C16         55.8350   103.7820    39.7680 ca         1 DBS      -0.097600
      7 C13         56.6480   102.8360    40.4420 ca         1 DBS      -0.094000
      8 C10         57.6780   102.1500    39.7770 ca         1 DBS      -0.111000
      9 C19         54.7400   104.4790    40.5700 c          1 DBS       0.595700
     10 O7          54.5500   104.2300    41.7570 o          1 DBS      -0.666100
     11 N1          53.9550   105.4000    39.9170 ns         1 DBS      -0.431900
     12 C22         52.8810   106.2270    40.5300 c3         1 DBS      -0.045300
     13 C28         53.4280   107.3290    41.4700 c3         1 DBS       0.163600
     14 O13         54.3350   108.2000    40.7790 oh         1 DBS      -0.646000
     15 C25         51.9320   106.8300    39.4540 c          1 DBS       0.730000
     16 O10         50.7890   107.1070    39.7940 o          1 DBS      -0.723000
     17 O15         52.3090   106.8820    38.2890 o          1 DBS      -0.723000
     18 HO4         58.1220   102.9990    36.1050 ho         1 DBS       0.471000
     19 HC7         58.7240   101.8560    37.9140 ha         1 DBS       0.116000
     20 HO1         55.7660   104.8690    36.7310 ho         1 DBS       0.467000
     21 HC13        56.4830   102.6260    41.4970 ha         1 DBS       0.137000
     22 HC10        58.2870   101.4290    40.3190 ha         1 DBS       0.106000
     23 HN1         54.1760   105.5490    38.9360 hn         1 DBS       0.351500
     24 HC22        52.2600   105.5560    41.1370 h1         1 DBS       0.057700
     25 H281        53.9400   106.8560    42.3180 h1         1 DBS       0.016700
     26 H282        52.5870   107.9050    41.8780 h1         1 DBS       0.016700
     27 HO13        54.6740   108.8410    41.4410 ho         1 DBS       0.409000
@<TRIPOS>BOND
     1     1     2 1   
     2     1    18 1   
     3     2     3 ar  
     4     2     4 ar  
     5     3     8 ar  
     6     3    19 1   
     7     4     5 1   
     8     4     6 ar  
     9     5    20 1   
    10     6     7 ar  
    11     6     9 1   
    12     7     8 ar  
    13     7    21 1   
    14     8    22 1   
    15     9    10 2   
    16     9    11 1   
    17    11    12 1   
    18    11    23 1   
    19    12    13 1   
    20    12    15 1   
    21    12    24 1   
    22    13    14 1   
    23    13    25 1   
    24    13    26 1   
    25    14    27 1   
    26    15    16 1   
    27    15    17 1   
@<TRIPOS>SUBSTRUCTURE
     1 DBS         1 TEMP              0 ****  ****    0 ROOT
