@<TRIPOS>MOLECULE
DBT
   36    37     1     0     0
SMALL
abcg2


@<TRIPOS>ATOM
      1 O6           2.6150    -0.5080    -0.5000 oh         1 DBT      -0.508100
      2 C6           1.4350    -0.4260    -1.0980 cc         1 DBT       0.060900
      3 C5           0.2950    -0.7950    -0.4750 cd         1 DBT      -0.204400
      4 C4          -0.9980    -0.6580    -1.1630 c          1 DBT       0.496800
      5 O4          -2.0500    -0.9590    -0.6390 o          1 DBT      -0.465100
      6 C4A         -0.9810    -0.1260    -2.5490 cc         1 DBT       0.269500
      7 C7A          0.1910     0.2180    -3.1570 cd         1 DBT      -0.338600
      8 S1          -0.1090     0.7930    -4.7340 ss         1 DBT       0.107600
      9 C2          -1.7840     0.5270    -4.4560 cd         1 DBT       0.408300
     10 N3          -2.0970     0.0500    -3.2910 nc         1 DBT      -0.582000
     11 C7           1.4750     0.1010    -2.5000 c          1 DBT       0.588900
     12 O7           2.5350     0.3980    -3.0060 o          1 DBT      -0.510100
     13 C8           0.2910    -1.2920     0.9380 c3         1 DBT      -0.019200
     14 C9           0.0760    -0.1580     1.9470 c3         1 DBT      -0.071400
     15 C10          0.0570    -0.6550     3.3870 c3         1 DBT      -0.073400
     16 C11         -0.1740     0.4660     4.3930 c3         1 DBT      -0.074400
     17 C12         -0.1920    -0.0140     5.8390 c3         1 DBT      -0.075400
     18 C13         -0.4650     1.1050     6.8380 c3         1 DBT      -0.075400
     19 C14         -0.4680     0.6240     8.2830 c3         1 DBT      -0.088100
     20 HO6          3.3140    -0.2300    -1.1120 ho         1 DBT       0.491000
     21 H2          -2.5060     0.7560    -5.2270 h5         1 DBT       0.061100
     22 H81          1.2320    -1.7990     1.1580 hc         1 DBT       0.060200
     23 H82         -0.4970    -2.0370     1.0620 hc         1 DBT       0.060200
     24 H91         -0.8670     0.3490     1.7240 hc         1 DBT       0.043200
     25 H92          0.8670     0.5890     1.8250 hc         1 DBT       0.043200
     26 H101         1.0040    -1.1570     3.6110 hc         1 DBT       0.039200
     27 H102        -0.7260    -1.4120     3.5010 hc         1 DBT       0.039200
     28 H111        -1.1230     0.9630     4.1650 hc         1 DBT       0.037700
     29 H112         0.6040     1.2280     4.2720 hc         1 DBT       0.037700
     30 H121         0.7670    -0.4860     6.0790 hc         1 DBT       0.037200
     31 H122        -0.9530    -0.7940     5.9550 hc         1 DBT       0.037200
     32 H131        -1.4280     1.5690     6.6040 hc         1 DBT       0.036200
     33 H132         0.2880     1.8900     6.7150 hc         1 DBT       0.036200
     34 H141        -0.6750     1.4400     8.9760 hc         1 DBT       0.031033
     35 H142        -1.2270    -0.1440     8.4430 hc         1 DBT       0.031033
     36 H143         0.4970     0.1940     8.5570 hc         1 DBT       0.031033
@<TRIPOS>BOND
     1     1     2 1   
     2     1    20 1   
     3     2     3 2   
     4     2    11 1   
     5     3     4 1   
     6     3    13 1   
     7     4     5 2   
     8     4     6 1   
     9     6     7 2   
    10     6    10 1   
    11     7     8 1   
    12     7    11 1   
    13     8     9 1   
    14     9    10 2   
    15     9    21 1   
    16    11    12 2   
    17    13    14 1   
    18    13    22 1   
    19    13    23 1   
    20    14    15 1   
    21    14    24 1   
    22    14    25 1   
    23    15    16 1   
    24    15    26 1   
    25    15    27 1   
    26    16    17 1   
    27    16    28 1   
    28    16    29 1   
    29    17    18 1   
    30    17    30 1   
    31    17    31 1   
    32    18    19 1   
    33    18    32 1   
    34    18    33 1   
    35    19    34 1   
    36    19    35 1   
    37    19    36 1   
@<TRIPOS>SUBSTRUCTURE
     1 DBT         1 TEMP              0 ****  ****    0 ROOT
