@<TRIPOS>MOLECULE
DBT
   36    37     1     0     0
SMALL
No Charge or Current Charge


@<TRIPOS>ATOM
      1 O6           2.7210    -0.5180    -0.5940 oh         1 DBT      -0.508100
      2 C6           1.4900    -0.4250    -1.1690 cc         1 DBT       0.060900
      3 C5           0.3240    -0.7680    -0.4990 cd         1 DBT      -0.204400
      4 C4          -1.0060    -0.6350    -1.1830 c          1 DBT       0.496800
      5 O4          -2.0530    -0.9280    -0.6100 o          1 DBT      -0.465100
      6 C4A         -0.9920    -0.1270    -2.6000 cc         1 DBT       0.269500
      7 C7A          0.1840     0.2000    -3.2300 cd         1 DBT      -0.338600
      8 S1          -0.0850     0.7640    -4.8680 ss         1 DBT       0.107600
      9 C2          -1.8040     0.5130    -4.5770 cd         1 DBT       0.408300
     10 N3          -2.1260     0.0530    -3.3700 nc         1 DBT      -0.582000
     11 C7           1.4950     0.0810    -2.5800 c          1 DBT       0.588900
     12 O7           2.5300     0.3810    -3.1630 o          1 DBT      -0.510100
     13 C8           0.3020    -1.2830     0.9340 c3         1 DBT      -0.019200
     14 C9           0.0570    -0.1540     1.9590 c3         1 DBT      -0.071400
     15 C10          0.0430    -0.6530     3.4200 c3         1 DBT      -0.073400
     16 C11         -0.2010     0.4780     4.4430 c3         1 DBT      -0.074400
     17 C12         -0.2150    -0.0210     5.9040 c3         1 DBT      -0.075400
     18 C13         -0.4590     1.1110     6.9270 c3         1 DBT      -0.075400
     19 C14         -0.4720     0.6130     8.3850 c3         1 DBT      -0.088100
     20 HO6          3.3770    -0.2190    -1.2670 ho         1 DBT       0.491000
     21 H2          -2.5140     0.7350    -5.3630 h5         1 DBT       0.061100
     22 H81          1.2500    -1.7790     1.1750 hc         1 DBT       0.060200
     23 H82         -0.4660    -2.0570     1.0580 hc         1 DBT       0.060200
     24 H91         -0.9000     0.3350     1.7360 hc         1 DBT       0.043200
     25 H92          0.8390     0.6070     1.8450 hc         1 DBT       0.043200
     26 H101         1.0000    -1.1410     3.6440 hc         1 DBT       0.039200
     27 H102        -0.7390    -1.4150     3.5330 hc         1 DBT       0.039200
     28 H111        -1.1590     0.9650     4.2190 hc         1 DBT       0.037700
     29 H112         0.5800     1.2400     4.3300 hc         1 DBT       0.037700
     30 H121         0.7420    -0.5080     6.1280 hc         1 DBT       0.037200
     31 H122        -0.9970    -0.7830     6.0170 hc         1 DBT       0.037200
     32 H131        -1.4160     1.5990     6.7080 hc         1 DBT       0.036200
     33 H132         0.3220     1.8740     6.8180 hc         1 DBT       0.036200
     34 H141        -0.6480     1.4490     9.0720 hc         1 DBT       0.031033
     35 H142        -1.2680    -0.1270     8.5350 hc         1 DBT       0.031033
     36 H143         0.4870     0.1500     8.6470 hc         1 DBT       0.031033
@<TRIPOS>BOND
     1     1     2 1   
     2     1    20 1   
     3     2     3 2   
     4     2    11 1   
     5     3     4 1   
     6     3    13 1   
     7     4     5 2   
     8     4     6 1   
     9     6     7 2   
    10     6    10 1   
    11     7     8 1   
    12     7    11 1   
    13     8     9 1   
    14     9    10 2   
    15     9    21 1   
    16    11    12 2   
    17    13    14 1   
    18    13    22 1   
    19    13    23 1   
    20    14    15 1   
    21    14    24 1   
    22    14    25 1   
    23    15    16 1   
    24    15    26 1   
    25    15    27 1   
    26    16    17 1   
    27    16    28 1   
    28    16    29 1   
    29    17    18 1   
    30    17    30 1   
    31    17    31 1   
    32    18    19 1   
    33    18    32 1   
    34    18    33 1   
    35    19    34 1   
    36    19    35 1   
    37    19    36 1   
@<TRIPOS>SUBSTRUCTURE
     1 DBT         1 TEMP              0 ****  ****    0 ROOT
