@<TRIPOS>MOLECULE
DBV
   77    80     1     0     0
SMALL
No Charge or Current Charge


@<TRIPOS>ATOM
      1 NA           1.7260    -0.6770     2.7380 ns         1 DBV      -0.409100
      2 C1A          1.4720    -0.8610     4.0560 c          1 DBV       0.554200
      3 C2A          2.6050    -0.1870     4.7070 cc         1 DBV      -0.181400
      4 C3A          3.4680     0.3350     3.7530 cd         1 DBV      -0.009000
      5 C4A          2.8810     0.0130     2.4740 cd         1 DBV      -0.008400
      6 CMA          2.6750    -0.1370     6.2140 c3         1 DBV      -0.025900
      7 CBA          5.6180     0.7340     4.9350 c2         1 DBV      -0.313000
      8 OA           0.5230    -1.4590     4.5400 o          1 DBV      -0.556000
      9 CHA          3.4030     0.3630     1.2480 ce         1 DBV      -0.108200
     10 CAA          4.7000     1.0880     4.0060 cf         1 DBV      -0.153000
     11 NB           1.5250     0.0710    -0.4090 na         1 DBV      -0.084000
     12 C1B          2.8610     0.3050    -0.1080 cc         1 DBV      -0.152800
     13 C2B          3.4880     0.4470    -1.3220 cd         1 DBV      -0.135300
     14 C3B          2.5210     0.3070    -2.3580 cd         1 DBV      -0.048300
     15 C4B          1.3000     0.0720    -1.7770 cc         1 DBV      -0.177800
     16 CHB         -0.0320    -0.1380    -2.3450 ce         1 DBV       0.034800
     17 CMB          4.9620     0.7090    -1.5320 c3         1 DBV      -0.011800
     18 CAB          2.8000     0.4070    -3.8410 c3         1 DBV      -0.012100
     19 CBB          3.1410    -0.9640    -4.4730 c3         1 DBV      -0.201400
     20 CGB          3.4630    -0.7870    -5.9650 c          1 DBV       0.718000
     21 O1B          2.5420    -0.8450    -6.7650 o          1 DBV      -0.739500
     22 O2B          4.6190    -0.5480    -6.2800 o          1 DBV      -0.739500
     23 CHC         -3.3080    -0.7880     1.1870 c3         1 DBV      -0.102700
     24 NC          -1.3570    -0.4330    -0.3340 nd         1 DBV      -0.661300
     25 C1C         -1.2460    -0.3520    -1.7160 cd         1 DBV       0.005600
     26 C2C         -2.5010    -0.5050    -2.3970 cd         1 DBV      -0.003200
     27 C3C         -3.4060    -0.6770    -1.3840 cc         1 DBV      -0.298800
     28 C4C         -2.6590    -0.6240    -0.1690 cc         1 DBV       0.434600
     29 CMC         -4.9000    -0.8840    -1.4620 c3         1 DBV      -0.009900
     30 CAC         -2.7670    -0.4820    -3.8860 c3         1 DBV      -0.022200
     31 CBC         -2.9260     0.9550    -4.4360 c3         1 DBV      -0.201400
     32 CGC         -3.2390     0.9110    -5.9400 c          1 DBV       0.719000
     33 O1C         -2.3020     0.9040    -6.7230 o          1 DBV      -0.738500
     34 O2C         -4.4080     0.8310    -6.2840 o          1 DBV      -0.738500
     35 ND          -1.8270     0.6650     2.5970 ns         1 DBV      -0.494900
     36 C1D         -2.3510    -0.6940     2.4010 c5         1 DBV       0.136900
     37 C2D         -3.0680    -0.9220     3.7470 c2         1 DBV      -0.067400
     38 C3D         -2.9710     0.1890     4.5080 ce         1 DBV      -0.163200
     39 C4D         -2.1870     1.2120     3.7850 c          1 DBV       0.567200
     40 CMD         -3.7680    -2.2300     4.0680 c3         1 DBV      -0.050900
     41 CAD         -3.5740     0.3410     5.8530 ce         1 DBV      -0.150000
     42 CBD         -3.4300     1.4010     6.6770 c2         1 DBV      -0.311000
     43 OD          -1.8950     2.3460     4.1320 o          1 DBV      -0.578000
     44 HNA          1.1230    -1.1040     2.0500 hn         1 DBV       0.345500
     45 HMA1         1.6730    -0.1260     6.6600 hc         1 DBV       0.043700
     46 HMA2         3.2110    -1.0080     6.6080 hc         1 DBV       0.043700
     47 HMA3         3.1950     0.7660     6.5550 hc         1 DBV       0.043700
     48 HBA1         6.5370     1.3070     5.0630 ha         1 DBV       0.160000
     49 HBA2         5.4750    -0.1370     5.5750 ha         1 DBV       0.160000
     50 HHA1         4.3820     0.8380     1.3020 ha         1 DBV       0.192000
     51 HAA1         4.8950     1.9380     3.3480 ha         1 DBV       0.183000
     52 HNB          0.7740    -0.0480     0.2630 hn         1 DBV       0.385000
     53 HHB1        -0.0700    -0.0980    -3.4320 ha         1 DBV       0.229000
     54 HMB1         5.3250     0.2510    -2.4590 hc         1 DBV       0.034033
     55 HMB2         5.1620     1.7850    -1.5880 hc         1 DBV       0.034033
     56 HMB3         5.5630     0.2960    -0.7140 hc         1 DBV       0.034033
     57 HAB1         1.9350     0.8390    -4.3600 hc         1 DBV       0.058700
     58 HAB2         3.6280     1.1030    -4.0200 hc         1 DBV       0.058700
     59 HBB1         4.0190    -1.3350    -3.9300 hc         1 DBV       0.018200
     60 HBB2         2.2460    -1.5850    -4.3400 hc         1 DBV       0.018200
     61 HHC1        -3.8080    -1.7630     1.2030 hc         1 DBV       0.057700
     62 HHC2        -4.1000    -0.0390     1.2960 hc         1 DBV       0.057700
     63 HMC1        -5.4270    -0.2400    -0.7480 hc         1 DBV       0.029033
     64 HMC2        -5.2900    -0.6480    -2.4580 hc         1 DBV       0.029033
     65 HMC3        -5.1610    -1.9250    -1.2350 hc         1 DBV       0.029033
     66 HAC1        -1.9590    -0.9930    -4.4240 hc         1 DBV       0.059200
     67 HAC2        -3.6740    -1.0550    -4.1130 hc         1 DBV       0.059200
     68 HBC1        -3.7650     1.3940    -3.8820 hc         1 DBV       0.021700
     69 HBC2        -1.9680     1.4560    -4.2550 hc         1 DBV       0.021700
     70 HND         -1.3150     1.2190     1.9230 hn         1 DBV       0.352500
     71 H1D1        -1.5400    -1.4240     2.2720 h1         1 DBV       0.089700
     72 HMD1        -3.7570    -2.4490     5.1410 hc         1 DBV       0.048033
     73 HMD2        -4.8120    -2.2070     3.7360 hc         1 DBV       0.048033
     74 HMD3        -3.2760    -3.0700     3.5640 hc         1 DBV       0.048033
     75 HAD1        -4.1940    -0.4890     6.1940 ha         1 DBV       0.154000
     76 HBD1        -3.9160     1.4260     7.6530 ha         1 DBV       0.167500
     77 HBD2        -2.8290     2.2730     6.4240 ha         1 DBV       0.167500
@<TRIPOS>BOND
     1     1     2 1   
     2     1     5 1   
     3     1    44 1   
     4     2     3 1   
     5     2     8 2   
     6     3     4 2   
     7     3     6 1   
     8     4     5 1   
     9     4    10 1   
    10     5     9 2   
    11     6    45 1   
    12     6    46 1   
    13     6    47 1   
    14     7    10 2   
    15     7    48 1   
    16     7    49 1   
    17     9    12 1   
    18     9    50 1   
    19    10    51 1   
    20    11    12 1   
    21    11    15 1   
    22    11    52 1   
    23    12    13 2   
    24    13    14 1   
    25    13    17 1   
    26    14    15 2   
    27    14    18 1   
    28    15    16 1   
    29    16    25 2   
    30    16    53 1   
    31    17    54 1   
    32    17    55 1   
    33    17    56 1   
    34    18    19 1   
    35    18    57 1   
    36    18    58 1   
    37    19    20 1   
    38    19    59 1   
    39    19    60 1   
    40    20    21 1   
    41    20    22 1   
    42    23    28 1   
    43    23    36 1   
    44    23    61 1   
    45    23    62 1   
    46    24    25 1   
    47    24    28 2   
    48    25    26 1   
    49    26    27 2   
    50    26    30 1   
    51    27    28 1   
    52    27    29 1   
    53    29    63 1   
    54    29    64 1   
    55    29    65 1   
    56    30    31 1   
    57    30    66 1   
    58    30    67 1   
    59    31    32 1   
    60    31    68 1   
    61    31    69 1   
    62    32    33 1   
    63    32    34 1   
    64    35    36 1   
    65    35    39 1   
    66    35    70 1   
    67    36    37 1   
    68    36    71 1   
    69    37    38 2   
    70    37    40 1   
    71    38    39 1   
    72    38    41 1   
    73    39    43 2   
    74    40    72 1   
    75    40    73 1   
    76    40    74 1   
    77    41    42 2   
    78    41    75 1   
    79    42    76 1   
    80    42    77 1   
@<TRIPOS>SUBSTRUCTURE
     1 DBV         1 TEMP              0 ****  ****    0 ROOT
