@<TRIPOS>MOLECULE
DBV
   77    80     1     0     0
SMALL
bcc


@<TRIPOS>ATOM
      1 NA           1.5210    -1.0320     2.3680 ns         1 DBV      -0.476100
      2 C1A          1.1990    -1.3800     3.6570 c          1 DBV       0.696700
      3 C2A          1.9760    -0.4810     4.5320 cc         1 DBV      -0.181400
      4 C3A          2.7920     0.2620     3.7480 cd         1 DBV      -0.009000
      5 C4A          2.5080    -0.0620     2.3490 cd         1 DBV      -0.008400
      6 CMA          1.7800    -0.4770     6.0020 c3         1 DBV      -0.025900
      7 CBA          4.4700     1.2650     5.2600 c2         1 DBV      -0.213000
      8 OA           0.4320    -2.2650     3.9840 o          1 DBV      -0.631500
      9 CHA          3.0750     0.4920     1.2570 ce         1 DBV      -0.058200
     10 CAA          3.7510     1.2860     4.1380 cf         1 DBV      -0.103000
     11 NB           1.3750     0.0050    -0.4450 na         1 DBV      -0.135100
     12 C1B          2.6430     0.3360    -0.1030 cc         1 DBV      -0.102100
     13 C2B          3.3620     0.5430    -1.2870 cd         1 DBV      -0.135300
     14 C3B          2.4760     0.3370    -2.3570 cd         1 DBV      -0.048300
     15 C4B          1.2300     0.0190    -1.8020 cc         1 DBV      -0.127100
     16 CHB         -0.0220    -0.1850    -2.4340 ce         1 DBV       0.084800
     17 CMB          4.8100     0.8830    -1.3970 c3         1 DBV      -0.011800
     18 CAB          2.8180     0.3880    -3.8080 c3         1 DBV      -0.012100
     19 CBB          3.3610    -0.9480    -4.3150 c3         1 DBV      -0.201400
     20 CGB          3.7510    -0.9770    -5.8040 c          1 DBV       0.928600
     21 O1B          3.5930     0.0660    -6.4670 o          1 DBV      -0.844800
     22 O2B          4.1970    -2.0640    -6.2270 o          1 DBV      -0.844800
     23 CHC         -3.1290    -0.7360     1.2260 c3         1 DBV      -0.102700
     24 NC          -1.3280    -0.4370    -0.4130 nd         1 DBV      -0.661300
     25 C1C         -1.2120    -0.3870    -1.8000 cd         1 DBV       0.005600
     26 C2C         -2.5190    -0.5560    -2.4070 cd         1 DBV      -0.003200
     27 C3C         -3.3930    -0.6960    -1.3690 cc         1 DBV      -0.298800
     28 C4C         -2.5940    -0.6170    -0.1610 cc         1 DBV       0.434600
     29 CMC         -4.8720    -0.8690    -1.4090 c3         1 DBV      -0.009900
     30 CAC         -2.8280    -0.4930    -3.8640 c3         1 DBV      -0.022200
     31 CBC         -3.1790     0.9280    -4.3050 c3         1 DBV      -0.201400
     32 CGC         -3.5350     1.0880    -5.7950 c          1 DBV       0.929600
     33 O1C         -3.4260     0.0880    -6.5300 o          1 DBV      -0.843800
     34 O2C         -3.9020     2.2290    -6.1440 o          1 DBV      -0.843800
     35 ND          -1.4280     0.6520     2.3560 ns         1 DBV      -0.561900
     36 C1D         -2.0370    -0.6470     2.2890 c5         1 DBV       0.136900
     37 C2D         -2.5240    -0.8370     3.6960 c2         1 DBV      -0.067400
     38 C3D         -2.2070     0.2360     4.4450 ce         1 DBV      -0.163200
     39 C4D         -1.5070     1.2220     3.5760 c          1 DBV       0.709700
     40 CMD         -3.1780    -2.1030     4.1050 c3         1 DBV      -0.050900
     41 CAD         -2.4630     0.4020     5.8650 ce         1 DBV      -0.100000
     42 CBD         -2.0880     1.4220     6.6400 c2         1 DBV      -0.211000
     43 OD          -1.0840     2.3280     3.8770 o          1 DBV      -0.653500
     44 HNA          1.3060    -1.6320     1.5860 hn         1 DBV       0.345500
     45 HMA1         0.7370    -0.6730     6.2490 hc         1 DBV       0.043700
     46 HMA2         2.3780    -1.2500     6.4900 hc         1 DBV       0.043700
     47 HMA3         2.0640     0.4790     6.4400 hc         1 DBV       0.043700
     48 HBA1         5.1630     2.0640     5.4880 ha         1 DBV       0.110000
     49 HBA2         4.4140     0.4520     5.9710 ha         1 DBV       0.110000
     50 HHA1         3.9210     1.1470     1.4160 ha         1 DBV       0.142000
     51 HAA1         3.8870     2.1110     3.4480 ha         1 DBV       0.133000
     52 HNB          0.5590    -0.1000     0.1510 hn         1 DBV       0.334700
     53 HHB1        -0.0220    -0.1560    -3.5170 ha         1 DBV       0.179000
     54 HMB1         5.4010     0.0230    -1.7210 hc         1 DBV       0.034033
     55 HMB2         4.9780     1.6760    -2.1270 hc         1 DBV       0.034033
     56 HMB3         5.2270     1.2190    -0.4480 hc         1 DBV       0.034033
     57 HAB1         1.9440     0.6740    -4.3950 hc         1 DBV       0.058700
     58 HAB2         3.5620     1.1700    -3.9770 hc         1 DBV       0.058700
     59 HBB1         4.2340    -1.2420    -3.7220 hc         1 DBV       0.018200
     60 HBB2         2.6180    -1.7330    -4.1360 hc         1 DBV       0.018200
     61 HHC1        -3.6520    -1.6940     1.3150 hc         1 DBV       0.057700
     62 HHC2        -3.8860     0.0360     1.4000 hc         1 DBV       0.057700
     63 HMC1        -5.3930     0.0360    -1.0860 hc         1 DBV       0.029033
     64 HMC2        -5.2200    -1.1010    -2.4150 hc         1 DBV       0.029033
     65 HMC3        -5.2040    -1.6760    -0.7530 hc         1 DBV       0.029033
     66 HAC1        -1.9860    -0.8620    -4.4520 hc         1 DBV       0.059200
     67 HAC2        -3.6640    -1.1590    -4.0890 hc         1 DBV       0.059200
     68 HBC1        -4.0140     1.3020    -3.7020 hc         1 DBV       0.021700
     69 HBC2        -2.3420     1.5990    -4.0800 hc         1 DBV       0.021700
     70 HND         -1.0160     1.1020     1.5560 hn         1 DBV       0.352500
     71 H1D1        -1.2880    -1.4190     2.0770 h1         1 DBV       0.089700
     72 HMD1        -3.5180    -2.0840     5.1380 hc         1 DBV       0.048033
     73 HMD2        -4.0400    -2.3310     3.4750 hc         1 DBV       0.048033
     74 HMD3        -2.4770    -2.9320     3.9950 hc         1 DBV       0.048033
     75 HAD1        -3.0130    -0.4080     6.3320 ha         1 DBV       0.104000
     76 HBD1        -2.3370     1.4210     7.6930 ha         1 DBV       0.117500
     77 HBD2        -1.5350     2.2710     6.2670 ha         1 DBV       0.117500
@<TRIPOS>BOND
     1     1     2 1   
     2     1     5 1   
     3     1    44 1   
     4     2     3 1   
     5     2     8 2   
     6     3     4 2   
     7     3     6 1   
     8     4     5 1   
     9     4    10 1   
    10     5     9 2   
    11     6    45 1   
    12     6    46 1   
    13     6    47 1   
    14     7    10 2   
    15     7    48 1   
    16     7    49 1   
    17     9    12 1   
    18     9    50 1   
    19    10    51 1   
    20    11    12 1   
    21    11    15 1   
    22    11    52 1   
    23    12    13 2   
    24    13    14 1   
    25    13    17 1   
    26    14    15 2   
    27    14    18 1   
    28    15    16 1   
    29    16    25 2   
    30    16    53 1   
    31    17    54 1   
    32    17    55 1   
    33    17    56 1   
    34    18    19 1   
    35    18    57 1   
    36    18    58 1   
    37    19    20 1   
    38    19    59 1   
    39    19    60 1   
    40    20    21 1   
    41    20    22 1   
    42    23    28 1   
    43    23    36 1   
    44    23    61 1   
    45    23    62 1   
    46    24    25 1   
    47    24    28 2   
    48    25    26 1   
    49    26    27 2   
    50    26    30 1   
    51    27    28 1   
    52    27    29 1   
    53    29    63 1   
    54    29    64 1   
    55    29    65 1   
    56    30    31 1   
    57    30    66 1   
    58    30    67 1   
    59    31    32 1   
    60    31    68 1   
    61    31    69 1   
    62    32    33 1   
    63    32    34 1   
    64    35    36 1   
    65    35    39 1   
    66    35    70 1   
    67    36    37 1   
    68    36    71 1   
    69    37    38 2   
    70    37    40 1   
    71    38    39 1   
    72    38    41 1   
    73    39    43 2   
    74    40    72 1   
    75    40    73 1   
    76    40    74 1   
    77    41    42 2   
    78    41    75 1   
    79    42    76 1   
    80    42    77 1   
@<TRIPOS>SUBSTRUCTURE
     1 DBV         1 TEMP              0 ****  ****    0 ROOT
