@<TRIPOS>MOLECULE
DBW
   38    42     1     0     0
SMALL
No Charge or Current Charge


@<TRIPOS>ATOM
      1 C1          -0.1210     0.3290     0.0540 cc         1 DBW       0.044000
      2 C2          -1.5710     0.2590     0.0580 cc         1 DBW      -0.128300
      3 N3           0.5380     1.5800    -0.0130 na         1 DBW      -0.042000
      4 C4           0.6880    -0.7760     0.1130 cf         1 DBW      -0.319200
      5 C5          -2.3150     1.4230    -0.0040 cd         1 DBW      -0.008300
      6 C6          -2.2340    -1.1210     0.1330 c6         1 DBW       0.054100
      7 C7           2.0250     1.7170    -0.0210 c6         1 DBW       0.136900
      8 C8          -0.2320     2.7550    -0.0760 cc         1 DBW      -0.038000
      9 C9           2.1450    -0.8160     0.1150 ca         1 DBW       0.022200
     10 C10         -3.8380     1.4670    -0.0050 c6         1 DBW       0.043100
     11 C11         -1.6090     2.6580    -0.0700 cd         1 DBW      -0.232000
     12 C12         -3.7460    -1.0250     0.1280 c2         1 DBW      -0.012100
     13 C13          2.8240     0.4080     0.0490 ca         1 DBW      -0.144300
     14 C14          2.8570    -2.0280     0.1790 ca         1 DBW      -0.122000
     15 C15         -4.4360     0.0850     0.0690 c2         1 DBW      -0.023100
     16 O16         -4.5250    -2.1310     0.1880 os         1 DBW      -0.349100
     17 C17          4.2320     0.4150     0.0480 ca         1 DBW       0.146100
     18 C18          4.2630    -2.0190     0.1780 ca         1 DBW      -0.136000
     19 O19         -5.7740    -0.1140     0.0800 os         1 DBW      -0.350100
     20 C20         -5.8850    -1.5770     0.1580 c5         1 DBW       0.365600
     21 C21          4.9530    -0.7970     0.1120 ca         1 DBW       0.021100
     22 O22          4.9270     1.5880    -0.0150 oh         1 DBW      -0.545100
     23 O23          6.3240    -0.7800     0.1110 oh         1 DBW      -0.561100
     24 H4           0.2140    -1.7540     0.1660 ha         1 DBW       0.193000
     25 H6          -1.9270    -1.7450    -0.7170 hc         1 DBW       0.073700
     26 H7           2.3140     2.2540    -0.9350 h1         1 DBW       0.061700
     27 H8           0.3070     3.6940    -0.1270 h4         1 DBW       0.134000
     28 H10         -4.2000     2.0620     0.8440 hc         1 DBW       0.073700
     29 H11         -2.1810     3.5790    -0.1190 ha         1 DBW       0.130000
     30 H14          2.3230    -2.9740     0.2300 ha         1 DBW       0.118000
     31 H18          4.8060    -2.9610     0.2290 ha         1 DBW       0.112000
     32 H20         -6.4160    -1.9530    -0.7240 h2         1 DBW       0.058200
     33 H20A        -6.4160    -1.8570     1.0760 h2         1 DBW       0.058200
     34 HO22         5.8770     1.3300    -0.0020 ho         1 DBW       0.485000
     35 HO23         6.6560    -1.7050     0.1600 ho         1 DBW       0.473000
     36 H10A        -4.2000     1.9680    -0.9130 hc         1 DBW       0.073700
     37 H6A         -1.9260    -1.6510     1.0450 hc         1 DBW       0.073700
     38 H7A          2.3150     2.3490     0.8300 h1         1 DBW       0.061700
@<TRIPOS>BOND
     1     1     2 1   
     2     1     3 1   
     3     1     4 2   
     4     2     5 2   
     5     2     6 1   
     6     3     7 1   
     7     3     8 1   
     8     4     9 1   
     9     4    24 1   
    10     5    10 1   
    11     5    11 1   
    12     6    12 1   
    13     6    25 1   
    14     6    37 1   
    15     7    13 1   
    16     7    26 1   
    17     7    38 1   
    18     8    11 2   
    19     8    27 1   
    20     9    13 ar  
    21     9    14 ar  
    22    10    15 1   
    23    10    28 1   
    24    10    36 1   
    25    11    29 1   
    26    12    15 2   
    27    12    16 1   
    28    13    17 ar  
    29    14    18 ar  
    30    14    30 1   
    31    15    19 1   
    32    16    20 1   
    33    17    21 ar  
    34    17    22 1   
    35    18    21 ar  
    36    18    31 1   
    37    19    20 1   
    38    20    32 1   
    39    20    33 1   
    40    21    23 1   
    41    22    34 1   
    42    23    35 1   
@<TRIPOS>SUBSTRUCTURE
     1 DBW         1 TEMP              0 ****  ****    0 ROOT
