@<TRIPOS>MOLECULE
DBW
   38    42     1     0     0
SMALL
bcc


@<TRIPOS>ATOM
      1 C1          -0.1000     0.1920    -0.1860 cc         1 DBW       0.094700
      2 C2          -1.5460     0.2070    -0.0790 cc         1 DBW      -0.128300
      3 N3           0.5460     1.4230    -0.1460 na         1 DBW      -0.114100
      4 C4           0.6520    -0.9450    -0.2760 cf         1 DBW      -0.269200
      5 C5          -2.2020     1.3750     0.1720 cd         1 DBW      -0.008300
      6 C6          -2.2300    -1.1280    -0.2230 c6         1 DBW       0.054100
      7 C7           1.9140     1.5020    -0.6440 c6         1 DBW       0.107600
      8 C8          -0.1230     2.5710     0.1230 cc         1 DBW      -0.005300
      9 C9           2.0830    -0.9030    -0.0930 ca         1 DBW       0.022200
     10 C10         -3.6990     1.4900     0.3220 c6         1 DBW       0.043100
     11 C11         -1.4580     2.5900     0.3110 cd         1 DBW      -0.250000
     12 C12         -3.6880    -0.9580    -0.1000 c2         1 DBW      -0.012100
     13 C13          2.7300     0.3390    -0.1680 ca         1 DBW      -0.144300
     14 C14          2.8370    -2.0310     0.2300 ca         1 DBW      -0.140000
     15 C15         -4.3250     0.1700     0.1400 c2         1 DBW      -0.023100
     16 O16         -4.5820    -1.9880    -0.2680 os         1 DBW      -0.325900
     17 C17          4.0850     0.4530     0.0950 ca         1 DBW       0.146100
     18 C18          4.1970    -1.9210     0.4850 ca         1 DBW      -0.154000
     19 O19         -5.6840    -0.0350     0.1440 os         1 DBW      -0.326900
     20 C20         -5.8090    -1.4480     0.2000 c5         1 DBW       0.319200
     21 C21          4.8270    -0.6890     0.4290 ca         1 DBW       0.021100
     22 O22          4.6740     1.6660    -0.0060 oh         1 DBW      -0.506100
     23 O23          6.1510    -0.4940     0.6590 oh         1 DBW      -0.522100
     24 H4           0.1660    -1.9090    -0.3130 ha         1 DBW       0.143000
     25 H6          -1.9680    -1.5780    -1.1890 hc         1 DBW       0.073700
     26 H7           1.8850     1.5130    -1.7420 h1         1 DBW       0.061700
     27 H8           0.4810     3.4670     0.1660 h4         1 DBW       0.152000
     28 H10         -3.9320     1.9130     1.3060 hc         1 DBW       0.073700
     29 H11         -1.9570     3.5210     0.5360 ha         1 DBW       0.148000
     30 H14          2.3580    -3.0010     0.2980 ha         1 DBW       0.136000
     31 H18          4.7710    -2.8060     0.7360 ha         1 DBW       0.130000
     32 H20         -6.6300    -1.7770    -0.4370 h2         1 DBW       0.058200
     33 H20A        -5.9790    -1.7630     1.2390 h2         1 DBW       0.058200
     34 HO22         5.6130     1.6010     0.2040 ho         1 DBW       0.446000
     35 HO23         6.5820    -1.3250     0.8830 ho         1 DBW       0.434000
     36 H10A        -4.0800     2.2140    -0.4080 hc         1 DBW       0.073700
     37 H6A         -1.8550    -1.8250     0.5360 hc         1 DBW       0.073700
     38 H7A          2.3320     2.4550    -0.3250 h1         1 DBW       0.061700
@<TRIPOS>BOND
     1     1     2 1   
     2     1     3 1   
     3     1     4 2   
     4     2     5 2   
     5     2     6 1   
     6     3     7 1   
     7     3     8 1   
     8     4     9 1   
     9     4    24 1   
    10     5    10 1   
    11     5    11 1   
    12     6    12 1   
    13     6    25 1   
    14     6    37 1   
    15     7    13 1   
    16     7    26 1   
    17     7    38 1   
    18     8    11 2   
    19     8    27 1   
    20     9    13 ar  
    21     9    14 ar  
    22    10    15 1   
    23    10    28 1   
    24    10    36 1   
    25    11    29 1   
    26    12    15 2   
    27    12    16 1   
    28    13    17 ar  
    29    14    18 ar  
    30    14    30 1   
    31    15    19 1   
    32    16    20 1   
    33    17    21 ar  
    34    17    22 1   
    35    18    21 ar  
    36    18    31 1   
    37    19    20 1   
    38    20    32 1   
    39    20    33 1   
    40    21    23 1   
    41    22    34 1   
    42    23    35 1   
@<TRIPOS>SUBSTRUCTURE
     1 DBW         1 TEMP              0 ****  ****    0 ROOT
