@<TRIPOS>MOLECULE
DBX
   17    17     1     0     0
SMALL
bcc


@<TRIPOS>ATOM
      1 C1          -0.0500     0.0570    -0.0710 ca         1 DBX      -0.308500
      2 O1           2.0560    -0.5050     1.3560 o          1 DBX      -0.685200
      3 S1           1.6950    -0.3340    -0.0570 s6         1 DBX       1.267100
      4 C2          -0.4920     1.3840    -0.1060 ca         1 DBX       0.213100
      5 O2           1.8670    -1.5460    -0.8650 o          1 DBX      -0.685200
      6 C3          -0.9550    -0.9940     0.0330 ca         1 DBX      -0.028000
      7 O3           2.3390     0.8620    -0.6710 o          1 DBX      -0.685200
      8 C4          -2.7640     0.5740     0.0910 ca         1 DBX      -0.166000
      9 O4           0.3280     2.4430    -0.2210 oh         1 DBX      -0.548100
     10 C5          -2.3160    -0.7450     0.1140 ca         1 DBX       0.043100
     11 O5          -3.1550    -1.8030     0.2110 oh         1 DBX      -0.510100
     12 C6          -1.8640     1.6180    -0.0240 ca         1 DBX      -0.182000
     13 H3          -0.6000    -2.0170     0.0430 ha         1 DBX       0.154000
     14 H4          -3.8240     0.7920     0.1540 ha         1 DBX       0.105000
     15 HO4          1.2320     2.1050    -0.4150 ho         1 DBX       0.492000
     16 HO5         -4.0690    -1.5010     0.2400 ho         1 DBX       0.402000
     17 H6          -2.2260     2.6390    -0.0510 ha         1 DBX       0.122000
@<TRIPOS>BOND
     1     1     3 1   
     2     1     4 ar  
     3     1     6 ar  
     4     2     3 1   
     5     3     5 1   
     6     3     7 1   
     7     4     9 1   
     8     4    12 ar  
     9     6    10 ar  
    10     6    13 1   
    11     8    10 ar  
    12     8    12 ar  
    13     8    14 1   
    14     9    15 1   
    15    10    11 1   
    16    11    16 1   
    17    12    17 1   
@<TRIPOS>SUBSTRUCTURE
     1 DBX         1 TEMP              0 ****  ****    0 ROOT
