@<TRIPOS>MOLECULE
DBX
   17    17     1     0     0
SMALL
No Charge or Current Charge


@<TRIPOS>ATOM
      1 C1          -0.0050     0.0740    -0.0410 ca         1 DBX      -0.308500
      2 O1           1.9800    -0.9540     1.2340 o          1 DBX      -0.685200
      3 S1           1.7930    -0.3370    -0.0860 s6         1 DBX       1.267100
      4 C2          -0.5100     1.3870    -0.1750 ca         1 DBX       0.213100
      5 O2           1.8500    -1.2560    -1.2310 o          1 DBX      -0.685200
      6 C3          -0.9200    -0.9890     0.1380 ca         1 DBX      -0.010000
      7 O3           2.4080     0.9860    -0.2800 o          1 DBX      -0.685200
      8 C4          -2.7950     0.5570     0.0480 ca         1 DBX      -0.148000
      9 O4           0.3150     2.4530    -0.3500 oh         1 DBX      -0.587100
     10 C5          -2.3050    -0.7500     0.1820 ca         1 DBX       0.043100
     11 O5          -3.1740    -1.7880     0.3560 oh         1 DBX      -0.549100
     12 C6          -1.8950     1.6210    -0.1310 ca         1 DBX      -0.164000
     13 H3          -0.5540    -2.0090     0.2440 ha         1 DBX       0.136000
     14 H4          -3.8640     0.7550     0.0800 ha         1 DBX       0.087000
     15 HO4          1.2420     2.0780    -0.3530 ho         1 DBX       0.531000
     16 HO5         -4.0890    -1.4330     0.3610 ho         1 DBX       0.441000
     17 H6          -2.2730     2.6340    -0.2350 ha         1 DBX       0.104000
@<TRIPOS>BOND
     1     1     3 1   
     2     1     4 ar  
     3     1     6 ar  
     4     2     3 1   
     5     3     5 1   
     6     3     7 1   
     7     4     9 1   
     8     4    12 ar  
     9     6    10 ar  
    10     6    13 1   
    11     8    10 ar  
    12     8    12 ar  
    13     8    14 1   
    14     9    15 1   
    15    10    11 1   
    16    11    16 1   
    17    12    17 1   
@<TRIPOS>SUBSTRUCTURE
     1 DBX         1 TEMP              0 ****  ****    0 ROOT
