@<TRIPOS>MOLECULE
DBY
   23    23     1     0     0
SMALL
No Charge or Current Charge


@<TRIPOS>ATOM
      1 N            6.6940    24.7130    10.0530 n8         1 DBY      -0.878800
      2 CA           7.0440    23.5640    10.9710 c3         1 DBY       0.024500
      3 C            6.5430    23.6540    12.4790 c          1 DBY       0.935600
      4 O            6.8920    24.6120    13.1650 o          1 DBY      -0.830300
      5 CB           8.5700    23.2870    10.9120 c3         1 DBY      -0.069100
      6 CG           9.0940    23.0360     9.4990 ca         1 DBY      -0.080300
      7 CD1          9.9470    23.9700     8.8760 ca         1 DBY      -0.059500
      8 CE1         10.4300    23.7350     7.5760 ca         1 DBY      -0.085900
      9 CD2          8.7350    21.8610     8.8100 ca         1 DBY      -0.059500
     10 CE2          9.2170    21.6230     7.5100 ca         1 DBY      -0.085900
     11 CZ          10.0660    22.5600     6.8880 ca         1 DBY       0.167100
     12 OH          10.5320    22.3260     5.6250 oh         1 DBY      -0.482100
     13 Br1         11.5850    25.0360     6.7660 br         1 DBY      -0.114100
     14 Br2          8.7010    20.0110     6.6060 br         1 DBY      -0.114100
     15 OXT          5.7650    22.7990    12.8940 o          1 DBY      -0.830300
     16 H            7.1900    24.5890     9.1650 hn         1 DBY       0.324800
     17 H2           7.0790    25.5790    10.4450 hn         1 DBY       0.324800
     18 HA           6.5480    22.6790    10.5490 h1         1 DBY       0.045700
     19 HB2          9.1050    24.1260    11.3760 hc         1 DBY       0.059200
     20 HB3          8.7910    22.4130    11.5380 hc         1 DBY       0.059200
     21 HD1         10.2340    24.8800     9.3980 ha         1 DBY       0.156000
     22 HD2          8.0820    21.1300     9.2830 ha         1 DBY       0.156000
     23 HH          10.1680    21.4660     5.3280 ho         1 DBY       0.435000
@<TRIPOS>BOND
     1     1     2 1   
     2     1    16 1   
     3     1    17 1   
     4     2     3 1   
     5     2     5 1   
     6     2    18 1   
     7     3     4 1   
     8     3    15 1   
     9     5     6 1   
    10     5    19 1   
    11     5    20 1   
    12     6     7 ar  
    13     6     9 ar  
    14     7     8 ar  
    15     7    21 1   
    16     8    11 ar  
    17     8    13 1   
    18     9    10 ar  
    19     9    22 1   
    20    10    11 ar  
    21    10    14 1   
    22    11    12 1   
    23    12    23 1   
@<TRIPOS>SUBSTRUCTURE
     1 DBY         1 TEMP              0 ****  ****    0 ROOT
