@<TRIPOS>MOLECULE
DBY
   23    23     1     0     0
SMALL
bcc


@<TRIPOS>ATOM
      1 N            6.8410    24.8620    10.1370 n8         1 DBY      -0.878800
      2 CA           7.0420    23.6390    10.8860 c3         1 DBY       0.024500
      3 C            6.5840    23.8060    12.3570 c          1 DBY       0.935600
      4 O            6.5570    24.9660    12.8110 o          1 DBY      -0.830300
      5 CB           8.5030    23.1260    10.9120 c3         1 DBY      -0.069100
      6 CG           9.0660    22.9090     9.5390 ca         1 DBY      -0.080300
      7 CD1          9.8240    23.8890     8.9070 ca         1 DBY      -0.059500
      8 CE1         10.2900    23.7030     7.6160 ca         1 DBY      -0.085900
      9 CD2          8.7960    21.7390     8.8370 ca         1 DBY      -0.059500
     10 CE2          9.2700    21.5580     7.5480 ca         1 DBY      -0.085900
     11 CZ          10.0230    22.5380     6.8930 ca         1 DBY       0.167100
     12 OH          10.5060    22.4440     5.6520 oh         1 DBY      -0.482100
     13 BR1         11.3190    25.0520     6.7980 br         1 DBY      -0.114100
     14 BR2          8.8960    19.9330     6.6580 br         1 DBY      -0.114100
     15 OXT          6.3290    22.7510    12.9700 o          1 DBY      -0.830300
     16 H            7.3050    24.8160     9.2370 hn         1 DBY       0.324800
     17 H2           7.2570    25.6310    10.6480 hn         1 DBY       0.324800
     18 HA           6.4330    22.8520    10.4270 h1         1 DBY       0.045700
     19 HB2          9.1230    23.8510    11.4480 hc         1 DBY       0.059200
     20 HB3          8.5370    22.1930    11.4770 hc         1 DBY       0.059200
     21 HD1         10.0600    24.8060     9.4340 ha         1 DBY       0.156000
     22 HD2          8.2130    20.9580     9.3090 ha         1 DBY       0.156000
     23 HH          10.2380    21.6270     5.2120 ho         1 DBY       0.435000
@<TRIPOS>BOND
     1     1     2 1   
     2     1    16 1   
     3     1    17 1   
     4     2     3 1   
     5     2     5 1   
     6     2    18 1   
     7     3     4 1   
     8     3    15 1   
     9     5     6 1   
    10     5    19 1   
    11     5    20 1   
    12     6     7 ar  
    13     6     9 ar  
    14     7     8 ar  
    15     7    21 1   
    16     8    11 ar  
    17     8    13 1   
    18     9    10 ar  
    19     9    22 1   
    20    10    11 ar  
    21    10    14 1   
    22    11    12 1   
    23    12    23 1   
@<TRIPOS>SUBSTRUCTURE
     1 DBY         1 TEMP              0 ****  ****    0 ROOT
