@<TRIPOS>MOLECULE
DC0
   42    42     1     0     0
SMALL
No Charge or Current Charge


@<TRIPOS>ATOM
      1 N           -1.7540     1.6290     0.0210 n8         1 DC0      -0.882800
      2 C1          -2.2060     0.2130     0.0230 c3         1 DC0       0.146500
      3 C2          -1.1080    -0.7470    -0.5360 c3         1 DC0       0.185800
      4 C3          -3.5390     0.0720    -0.7600 c3         1 DC0      -0.111400
      5 C4          -4.7470     0.8960    -0.2220 c3         1 DC0      -0.060700
      6 C5          -5.9670     0.7550    -1.1600 c3         1 DC0      -0.086100
      7 C6          -5.1290     0.5230     1.2300 c3         1 DC0      -0.086100
      8 N2           0.1400    -0.6540     0.2520 n7         1 DC0      -0.779200
      9 C7           1.3300    -1.3780    -0.3230 c3         1 DC0       0.043500
     10 C            1.1770    -2.9570    -0.4650 c          1 DC0       0.926600
     11 O            1.4220    -3.6810     0.4990 o          1 DC0      -0.831300
     12 C9           2.5950    -0.9990     0.4910 c3         1 DC0      -0.031100
     13 C10          2.9310     0.4900     0.4230 ca         1 DC0      -0.052300
     14 C11          2.6740     1.3320     1.5230 ca         1 DC0      -0.128000
     15 C12          3.5060     1.0330    -0.7430 ca         1 DC0      -0.128000
     16 C13          2.9880     2.7010     1.4570 ca         1 DC0      -0.139000
     17 C14          3.8200     2.4020    -0.8090 ca         1 DC0      -0.139000
     18 C15          3.5610     3.2360     0.2920 ca         1 DC0      -0.156000
     19 OXT          0.8480    -3.4190    -1.5550 o          1 DC0      -0.831300
     20 H           -1.6000     1.9240    -0.9470 hn         1 DC0       0.323800
     21 H1          -2.3870    -0.0810     1.0670 h1         1 DC0       0.072700
     22 H3          -1.4900    -1.7770    -0.5210 h1         1 DC0       0.029700
     23 H4          -0.9140    -0.4810    -1.5840 h1         1 DC0       0.029700
     24 H5          -3.3580     0.3490    -1.8060 hc         1 DC0       0.044200
     25 H6          -3.8230    -0.9880    -0.7720 hc         1 DC0       0.044200
     26 H7          -4.4690     1.9580    -0.2270 hc         1 DC0       0.030700
     27 H8          -6.3110    -0.2860    -1.2010 hc         1 DC0       0.029033
     28 H9          -6.8000     1.3780    -0.8110 hc         1 DC0       0.029033
     29 H10         -5.7140     1.0730    -2.1790 hc         1 DC0       0.029033
     30 H11         -4.3150     0.7520     1.9270 hc         1 DC0       0.029033
     31 H12         -6.0090     1.0920     1.5560 hc         1 DC0       0.029033
     32 H13         -5.3650    -0.5450     1.3110 hc         1 DC0       0.029033
     33 H14          0.3720     0.3430     0.3110 hn         1 DC0       0.340800
     34 H15          1.4940    -0.9990    -1.3420 h1         1 DC0       0.003700
     35 H16          2.4660    -1.3170     1.5330 hc         1 DC0       0.060200
     36 H17          3.4450    -1.5760     0.1050 hc         1 DC0       0.060200
     37 H18          2.2270     0.9260     2.4280 ha         1 DC0       0.135000
     38 H19          3.7100     0.3930    -1.5990 ha         1 DC0       0.135000
     39 H20          2.7850     3.3470     2.3100 ha         1 DC0       0.112500
     40 H21          4.2640     2.8160    -1.7120 ha         1 DC0       0.112500
     41 H22          3.8040     4.2960     0.2410 ha         1 DC0       0.109000
     42 H2          -2.5250     2.2170     0.3470 hn         1 DC0       0.323800
@<TRIPOS>BOND
     1     1     2 1   
     2     1    20 1   
     3     1    42 1   
     4     2     3 1   
     5     2     4 1   
     6     2    21 1   
     7     3     8 1   
     8     3    22 1   
     9     3    23 1   
    10     4     5 1   
    11     4    24 1   
    12     4    25 1   
    13     5     6 1   
    14     5     7 1   
    15     5    26 1   
    16     6    27 1   
    17     6    28 1   
    18     6    29 1   
    19     7    30 1   
    20     7    31 1   
    21     7    32 1   
    22     8     9 1   
    23     8    33 1   
    24     9    10 1   
    25     9    12 1   
    26     9    34 1   
    27    10    11 1   
    28    10    19 1   
    29    12    13 1   
    30    12    35 1   
    31    12    36 1   
    32    13    14 ar  
    33    13    15 ar  
    34    14    16 ar  
    35    14    37 1   
    36    15    17 ar  
    37    15    38 1   
    38    16    18 ar  
    39    16    39 1   
    40    17    18 ar  
    41    17    40 1   
    42    18    41 1   
@<TRIPOS>SUBSTRUCTURE
     1 DC0         1 TEMP              0 ****  ****    0 ROOT
