@<TRIPOS>MOLECULE
DC0
   42    42     1     0     0
SMALL
bcc


@<TRIPOS>ATOM
      1 N           -1.6470     1.5830     0.0290 n8         1 DC0      -0.882800
      2 C1          -2.1590     0.2170     0.0270 c3         1 DC0       0.146500
      3 C2          -1.0930    -0.7070    -0.5530 c3         1 DC0       0.185800
      4 C3          -3.4820     0.0410    -0.7240 c3         1 DC0      -0.111400
      5 C4          -4.6510     0.8830    -0.2070 c3         1 DC0      -0.060700
      6 C5          -5.8580     0.7290    -1.1270 c3         1 DC0      -0.086100
      7 C6          -5.0270     0.5300     1.2280 c3         1 DC0      -0.086100
      8 N2           0.1300    -0.6250     0.2120 n7         1 DC0      -0.779200
      9 C7           1.2440    -1.3220    -0.3880 c3         1 DC0       0.043500
     10 C            1.0770    -2.8610    -0.3910 c          1 DC0       0.926600
     11 O            0.3270    -3.3710     0.4600 o          1 DC0      -0.831300
     12 C9           2.5340    -0.9960     0.3860 c3         1 DC0      -0.031100
     13 C10          2.8740     0.4690     0.3690 ca         1 DC0      -0.052300
     14 C11          2.5780     1.2930     1.4530 ca         1 DC0      -0.128000
     15 C12          3.4650     1.0440    -0.7550 ca         1 DC0      -0.128000
     16 C13          2.8610     2.6530     1.4160 ca         1 DC0      -0.139000
     17 C14          3.7520     2.4000    -0.7970 ca         1 DC0      -0.139000
     18 C15          3.4500     3.2120     0.2900 ca         1 DC0      -0.156000
     19 OXT          1.7600    -3.4680    -1.2430 o          1 DC0      -0.831300
     20 H           -1.6700     1.9520    -0.9160 hn         1 DC0       0.323800
     21 H1          -2.3000    -0.0720     1.0740 h1         1 DC0       0.072700
     22 H3          -1.4640    -1.7340    -0.5370 h1         1 DC0       0.029700
     23 H4          -0.9430    -0.4460    -1.6190 h1         1 DC0       0.029700
     24 H5          -3.3130     0.2850    -1.7800 hc         1 DC0       0.044200
     25 H6          -3.7720    -1.0160    -0.6970 hc         1 DC0       0.044200
     26 H7          -4.3510     1.9370    -0.2320 hc         1 DC0       0.030700
     27 H8          -6.2020    -0.3080    -1.1510 hc         1 DC0       0.029033
     28 H9          -6.6950     1.3430    -0.7910 hc         1 DC0       0.029033
     29 H10         -5.6200     1.0220    -2.1510 hc         1 DC0       0.029033
     30 H11         -4.2150     0.7210     1.9310 hc         1 DC0       0.029033
     31 H12         -5.8850     1.1160     1.5630 hc         1 DC0       0.029033
     32 H13         -5.2940    -0.5260     1.3130 hc         1 DC0       0.029033
     33 H14          0.3530     0.3610     0.2970 hn         1 DC0       0.340800
     34 H15          1.4020    -1.0110    -1.4360 h1         1 DC0       0.003700
     35 H16          2.4180    -1.3390     1.4170 hc         1 DC0       0.060200
     36 H17          3.3520    -1.5670    -0.0570 hc         1 DC0       0.060200
     37 H18          2.1200     0.8650     2.3370 ha         1 DC0       0.135000
     38 H19          3.7080     0.4190    -1.6080 ha         1 DC0       0.135000
     39 H20          2.6220     3.2760     2.2690 ha         1 DC0       0.112500
     40 H21          4.2160     2.8250    -1.6790 ha         1 DC0       0.112500
     41 H22          3.6750     4.2700     0.2600 ha         1 DC0       0.109000
     42 H2          -2.2460     2.1860     0.5790 hn         1 DC0       0.323800
@<TRIPOS>BOND
     1     1     2 1   
     2     1    20 1   
     3     1    42 1   
     4     2     3 1   
     5     2     4 1   
     6     2    21 1   
     7     3     8 1   
     8     3    22 1   
     9     3    23 1   
    10     4     5 1   
    11     4    24 1   
    12     4    25 1   
    13     5     6 1   
    14     5     7 1   
    15     5    26 1   
    16     6    27 1   
    17     6    28 1   
    18     6    29 1   
    19     7    30 1   
    20     7    31 1   
    21     7    32 1   
    22     8     9 1   
    23     8    33 1   
    24     9    10 1   
    25     9    12 1   
    26     9    34 1   
    27    10    11 1   
    28    10    19 1   
    29    12    13 1   
    30    12    35 1   
    31    12    36 1   
    32    13    14 ar  
    33    13    15 ar  
    34    14    16 ar  
    35    14    37 1   
    36    15    17 ar  
    37    15    38 1   
    38    16    18 ar  
    39    16    39 1   
    40    17    18 ar  
    41    17    40 1   
    42    18    41 1   
@<TRIPOS>SUBSTRUCTURE
     1 DC0         1 TEMP              0 ****  ****    0 ROOT
