@<TRIPOS>MOLECULE
DC1
   22    22     1     0     0
SMALL
bcc


@<TRIPOS>ATOM
      1 C1          -2.0270   -33.0860    19.4980 c          1 DC1       0.587100
      2 C2          -3.2880   -32.4720    20.0410 c6         1 DC1      -0.179400
      3 C3          -3.3330   -30.9440    19.9810 c6         1 DC1      -0.031000
      4 C4          -3.0670   -30.5020    18.5390 c6         1 DC1      -0.179400
      5 C5          -1.7350   -30.9600    18.0190 c          1 DC1       0.587100
      6 C6          -1.2540   -32.3340    18.4350 c6         1 DC1      -0.304400
      7 C7          -4.7190   -30.4690    20.4040 c3         1 DC1      -0.088100
      8 C8          -2.2850   -30.3410    20.9200 c3         1 DC1      -0.088100
      9 O1          -1.6370   -34.1710    19.8640 o          1 DC1      -0.518100
     10 O2          -1.0620   -30.2870    17.2730 o          1 DC1      -0.518100
     11 H2C1        -3.4450   -32.8310    21.0610 hc         1 DC1       0.073450
     12 H2C2        -4.1110   -32.8800    19.4390 hc         1 DC1       0.073450
     13 H4C1        -3.1410   -29.4170    18.4380 hc         1 DC1       0.073450
     14 H4C2        -3.8340   -30.9360    17.8830 hc         1 DC1       0.073450
     15 H6C1        -1.2220   -32.9620    17.5370 hc         1 DC1       0.098700
     16 H6C2        -0.2110   -32.2540    18.7580 hc         1 DC1       0.098700
     17 H7C1        -5.4930   -30.8780    19.7530 hc         1 DC1       0.040033
     18 H7C2        -4.7860   -29.3810    20.3650 hc         1 DC1       0.040033
     19 H7C3        -4.9400   -30.7820    21.4270 hc         1 DC1       0.040033
     20 H8C1        -2.4760   -30.6400    21.9530 hc         1 DC1       0.040033
     21 H8C2        -2.3130   -29.2510    20.8770 hc         1 DC1       0.040033
     22 H8C3        -1.2640   -30.6490    20.6800 hc         1 DC1       0.040033
@<TRIPOS>BOND
     1     1     2 1   
     2     1     6 1   
     3     1     9 2   
     4     2     3 1   
     5     2    11 1   
     6     2    12 1   
     7     3     4 1   
     8     3     7 1   
     9     3     8 1   
    10     4     5 1   
    11     4    13 1   
    12     4    14 1   
    13     5     6 1   
    14     5    10 2   
    15     6    15 1   
    16     6    16 1   
    17     7    17 1   
    18     7    18 1   
    19     7    19 1   
    20     8    20 1   
    21     8    21 1   
    22     8    22 1   
@<TRIPOS>SUBSTRUCTURE
     1 DC1         1 TEMP              0 ****  ****    0 ROOT
