@<TRIPOS>MOLECULE
DC1
   22    22     1     0     0
SMALL
No Charge or Current Charge


@<TRIPOS>ATOM
      1 C1          -1.7570   -32.9610    19.5360 c          1 DC1       0.587100
      2 C2          -3.1070   -32.5010    20.1050 c6         1 DC1      -0.179400
      3 C3          -3.3090   -30.9500    19.9780 c6         1 DC1      -0.031000
      4 C4          -2.8470   -30.4160    18.5770 c6         1 DC1      -0.179400
      5 C5          -1.5170   -31.0380    18.1260 c          1 DC1       0.587100
      6 C6          -1.5220   -32.5450    18.1060 c6         1 DC1      -0.304400
      7 C7          -4.8050   -30.5890    20.2150 c3         1 DC1      -0.088100
      8 C8          -2.4850   -30.2360    21.0920 c3         1 DC1      -0.088100
      9 O1          -0.8900   -33.4860    20.2200 o          1 DC1      -0.518100
     10 O2          -0.5020   -30.3800    17.9430 o          1 DC1      -0.518100
     11 H2C1        -3.2300   -32.8560    21.1380 hc         1 DC1       0.073450
     12 H2C2        -3.8770   -32.9550    19.4660 hc         1 DC1       0.073450
     13 H4C1        -2.7890   -29.3190    18.5440 hc         1 DC1       0.073450
     14 H4C2        -3.6030   -30.7650    17.8600 hc         1 DC1       0.073450
     15 H6C1        -2.4290   -32.8320    17.5610 hc         1 DC1       0.098700
     16 H6C2        -0.5860   -32.9540    17.7070 hc         1 DC1       0.098700
     17 H7C1        -5.4550   -31.0570    19.4660 hc         1 DC1       0.040033
     18 H7C2        -4.9700   -29.5060    20.1600 hc         1 DC1       0.040033
     19 H7C3        -5.1470   -30.9260    21.2010 hc         1 DC1       0.040033
     20 H8C1        -2.7910   -30.5650    22.0920 hc         1 DC1       0.040033
     21 H8C2        -2.6140   -29.1470    21.0530 hc         1 DC1       0.040033
     22 H8C3        -1.4110   -30.4390    20.9970 hc         1 DC1       0.040033
@<TRIPOS>BOND
     1     1     2 1   
     2     1     6 1   
     3     1     9 2   
     4     2     3 1   
     5     2    11 1   
     6     2    12 1   
     7     3     4 1   
     8     3     7 1   
     9     3     8 1   
    10     4     5 1   
    11     4    13 1   
    12     4    14 1   
    13     5     6 1   
    14     5    10 2   
    15     6    15 1   
    16     6    16 1   
    17     7    17 1   
    18     7    18 1   
    19     7    19 1   
    20     8    20 1   
    21     8    21 1   
    22     8    22 1   
@<TRIPOS>SUBSTRUCTURE
     1 DC1         1 TEMP              0 ****  ****    0 ROOT
