@<TRIPOS>MOLECULE
DC2
   24    23     1     0     0
SMALL
bcc


@<TRIPOS>ATOM
      1 O1          -3.5850     1.6670    -0.7220 o          1 DC2      -0.816800
      2 CL1          3.0100     1.0270     0.7340 cl         1 DC2      -0.203400
      3 C2          -2.4710     1.8330    -0.2040 c          1 DC2       0.929600
      4 CL2          3.4670    -2.2810     0.9070 cl         1 DC2      -0.180400
      5 C4          -1.6260     0.5580     0.0930 c3         1 DC2      -0.045300
      6 N           -2.2140    -0.6480    -0.4300 ns         1 DC2      -0.526900
      7 C6          -3.0760    -1.4130     0.2610 c          1 DC2       0.675100
      8 O7          -3.3180    -1.2470     1.4500 o          1 DC2      -0.630100
      9 C8          -3.7050    -2.5420    -0.5160 c3         1 DC2      -0.176100
     10 C9          -0.2090     0.7260    -0.4360 c3         1 DC2       0.036700
     11 S10          0.7530    -0.7680    -0.0540 ss         1 DC2      -0.295200
     12 C11          2.3930    -0.1760    -0.4700 c3         1 DC2       0.116800
     13 C12          3.3710    -1.3180    -0.5960 c3         1 DC2       0.056000
     14 OXT         -1.9330     2.9050     0.1300 o          1 DC2      -0.816800
     15 H4          -1.5710     0.4480     1.1790 h1         1 DC2       0.086700
     16 H2          -2.1830    -0.7730    -1.4300 hn         1 DC2       0.294500
     17 H8          -3.3750    -3.4940    -0.0990 hc         1 DC2       0.043367
     18 H8A         -4.7880    -2.4990    -0.4060 hc         1 DC2       0.043367
     19 H8B         -3.4650    -2.5340    -1.5780 hc         1 DC2       0.043367
     20 H9          -0.2000     0.8930    -1.5160 h1         1 DC2       0.071700
     21 H9A          0.2570     1.5820     0.0470 h1         1 DC2       0.071700
     22 H11          2.3680     0.3500    -1.4250 h2         1 DC2       0.083700
     23 H12          4.3680    -0.9450    -0.8170 h1         1 DC2       0.069200
     24 H12A         3.0540    -1.9820    -1.3970 h1         1 DC2       0.069200
@<TRIPOS>BOND
     1     1     3 1   
     2     2    12 1   
     3     3     5 1   
     4     3    14 1   
     5     4    13 1   
     6     5     6 1   
     7     5    10 1   
     8     5    15 1   
     9     6     7 1   
    10     6    16 1   
    11     7     8 2   
    12     7     9 1   
    13     9    17 1   
    14     9    18 1   
    15     9    19 1   
    16    10    11 1   
    17    10    20 1   
    18    10    21 1   
    19    11    12 1   
    20    12    13 1   
    21    12    22 1   
    22    13    23 1   
    23    13    24 1   
@<TRIPOS>SUBSTRUCTURE
     1 DC2         1 TEMP              0 ****  ****    0 ROOT
