@<TRIPOS>MOLECULE
DC2
   24    23     1     0     0
SMALL
No Charge or Current Charge


@<TRIPOS>ATOM
      1 O1          -2.5920     2.3930    -1.4590 o          1 DC2      -0.816800
      2 Cl1          3.1200     1.1470    -0.0590 cl         1 DC2      -0.203400
      3 C2          -2.4620     2.1090    -0.2730 c          1 DC2       0.929600
      4 Cl2          3.6940    -1.8680     1.3230 cl         1 DC2      -0.180400
      5 C4          -1.7350     0.7800     0.1060 c3         1 DC2      -0.045300
      6 N           -2.4580    -0.4150    -0.4230 ns         1 DC2      -0.526900
      7 C6          -2.8040    -1.5290     0.3100 c          1 DC2       0.675100
      8 O7          -2.5930    -1.6250     1.5110 o          1 DC2      -0.630100
      9 C8          -3.4870    -2.6300    -0.4940 c3         1 DC2      -0.176100
     10 C9          -0.2620     0.8140    -0.3650 c3         1 DC2       0.036700
     11 S10          0.6860    -0.6580     0.2400 ss         1 DC2      -0.295200
     12 C11          2.3040    -0.3790    -0.6100 c3         1 DC2       0.116800
     13 C12          3.2340    -1.5970    -0.4180 c3         1 DC2       0.056000
     14 OXT         -2.9280     2.7980     0.6280 o          1 DC2      -0.816800
     15 H4          -1.7350     0.7380     1.2020 h1         1 DC2       0.086700
     16 H2          -2.7030    -0.4310    -1.4070 hn         1 DC2       0.294500
     17 H8          -2.8400    -2.9140    -1.3310 hc         1 DC2       0.043367
     18 H8A         -3.7580    -3.4970     0.1200 hc         1 DC2       0.043367
     19 H8B         -4.3590    -2.2100    -1.0080 hc         1 DC2       0.043367
     20 H9          -0.2250     0.8380    -1.4610 h1         1 DC2       0.071700
     21 H9A          0.2200     1.7240     0.0140 h1         1 DC2       0.071700
     22 H11          2.1050    -0.2510    -1.6800 h2         1 DC2       0.083700
     23 H12          4.1620    -1.4550    -0.9850 h1         1 DC2       0.069200
     24 H12A         2.7400    -2.5090    -0.7760 h1         1 DC2       0.069200
@<TRIPOS>BOND
     1     1     3 1   
     2     2    12 1   
     3     3     5 1   
     4     3    14 1   
     5     4    13 1   
     6     5     6 1   
     7     5    10 1   
     8     5    15 1   
     9     6     7 1   
    10     6    16 1   
    11     7     8 2   
    12     7     9 1   
    13     9    17 1   
    14     9    18 1   
    15     9    19 1   
    16    10    11 1   
    17    10    20 1   
    18    10    21 1   
    19    11    12 1   
    20    12    13 1   
    21    12    22 1   
    22    13    23 1   
    23    13    24 1   
@<TRIPOS>SUBSTRUCTURE
     1 DC2         1 TEMP              0 ****  ****    0 ROOT
