@<TRIPOS>MOLECULE
DC3
   45    47     1     0     0
SMALL
No Charge or Current Charge


@<TRIPOS>ATOM
      1 FAG          4.6450    -2.0990     1.5020 f          1 DC3      -0.170000
      2 CAE          5.0290    -0.9410     0.9180 ca         1 DC3       0.178000
      3 CAF          6.3890    -0.7510     0.6240 ca         1 DC3      -0.170000
      4 CAA          6.8110     0.4390     0.0140 ca         1 DC3       0.164000
      5 FAH          8.1220     0.6170    -0.2660 f          1 DC3      -0.150000
      6 CAB          5.8740     1.4400    -0.3040 ca         1 DC3       0.123000
      7 FAI          6.2750     2.5910    -0.8910 f          1 DC3      -0.154000
      8 CAC          4.5130     1.2500    -0.0110 ca         1 DC3      -0.106000
      9 CAD          4.0760     0.0560     0.6020 ca         1 DC3      -0.113300
     10 CAJ          2.5880    -0.1240     0.9150 c3         1 DC3      -0.069100
     11 CAK          1.7260    -0.4180    -0.3370 c3         1 DC3       0.173500
     12 NAM          2.2130    -1.6260    -1.0260 n8         1 DC3      -1.008200
     13 CAL          0.2240    -0.5570     0.0030 c3         1 DC3      -0.091400
     14 CAN         -0.6790    -0.7450    -1.2380 c3         1 DC3       0.086600
     15 NAO         -2.1100    -0.8060    -0.9020 na         1 DC3       0.124800
     16 CAP         -2.9580     0.2500    -0.6810 cc         1 DC3      -0.209000
     17 NAS         -2.7500    -2.0010    -0.7670 nc         1 DC3      -0.198800
     18 NAR         -3.9910    -1.7260    -0.4650 nd         1 DC3      -0.358000
     19 CAQ         -4.1530    -0.3550    -0.4030 cd         1 DC3       0.261500
     20 CAT         -5.4380     0.3030    -0.0830 ca         1 DC3      -0.103500
     21 CAY         -6.5960    -0.4630     0.1830 ca         1 DC3      -0.081000
     22 CAX         -7.8210     0.1600     0.4880 ca         1 DC3      -0.078300
     23 CAZ         -9.0560    -0.6820     0.7750 c3         1 DC3      -0.046800
     24 CAW         -7.8940     1.5630     0.5330 ca         1 DC3      -0.108000
     25 CAV         -6.7520     2.3360     0.2710 ca         1 DC3      -0.111000
     26 CAU         -5.5320     1.7110    -0.0360 ca         1 DC3      -0.109000
     27 H1           7.1120    -1.5240     0.8690 ha         1 DC3       0.157000
     28 H2           3.7990     2.0330    -0.2590 ha         1 DC3       0.139000
     29 H3           2.4340    -0.9190     1.6550 hc         1 DC3       0.065700
     30 H4           2.2100     0.7900     1.3900 hc         1 DC3       0.065700
     31 H5           1.8370     0.4290    -1.0300 h1         1 DC3       0.056700
     32 H6           3.2050    -1.4920    -1.2500 hn         1 DC3       0.407500
     33 H7           2.2320    -2.4030    -0.3550 hn         1 DC3       0.407500
     34 H9           0.0770    -1.4010     0.6890 hc         1 DC3       0.057200
     35 H10         -0.1010     0.3440     0.5380 hc         1 DC3       0.057200
     36 H11         -0.5260     0.0900    -1.9320 h1         1 DC3       0.080700
     37 H12         -0.4040    -1.6680    -1.7620 h1         1 DC3       0.080700
     38 H13         -2.6570     1.2860    -0.7350 h4         1 DC3       0.165000
     39 H14         -6.5490    -1.5490     0.1550 ha         1 DC3       0.133000
     40 H15         -9.0930    -0.9720     1.8320 hc         1 DC3       0.042700
     41 H16         -9.9780    -0.1340     0.5450 hc         1 DC3       0.042700
     42 H17         -9.0620    -1.5990     0.1750 hc         1 DC3       0.042700
     43 H18         -8.8340     2.0560     0.7710 ha         1 DC3       0.111000
     44 H19         -6.8120     3.4220     0.3060 ha         1 DC3       0.110000
     45 H20         -4.6610     2.3310    -0.2350 ha         1 DC3       0.104000
@<TRIPOS>BOND
     1     1     2 1   
     2     2     3 ar  
     3     2     9 ar  
     4     3     4 ar  
     5     3    27 1   
     6     4     5 1   
     7     4     6 ar  
     8     6     7 1   
     9     6     8 ar  
    10     8     9 ar  
    11     8    28 1   
    12     9    10 1   
    13    10    11 1   
    14    10    29 1   
    15    10    30 1   
    16    11    12 1   
    17    11    13 1   
    18    11    31 1   
    19    12    32 1   
    20    12    33 1   
    21    13    14 1   
    22    13    34 1   
    23    13    35 1   
    24    14    15 1   
    25    14    36 1   
    26    14    37 1   
    27    15    16 1   
    28    15    17 1   
    29    16    19 2   
    30    16    38 1   
    31    17    18 2   
    32    18    19 1   
    33    19    20 1   
    34    20    21 ar  
    35    20    26 ar  
    36    21    22 ar  
    37    21    39 1   
    38    22    23 1   
    39    22    24 ar  
    40    23    40 1   
    41    23    41 1   
    42    23    42 1   
    43    24    25 ar  
    44    24    43 1   
    45    25    26 ar  
    46    25    44 1   
    47    26    45 1   
@<TRIPOS>SUBSTRUCTURE
     1 DC3         1 TEMP              0 ****  ****    0 ROOT
