@<TRIPOS>MOLECULE
DC3
   45    47     1     0     0
SMALL
bcc


@<TRIPOS>ATOM
      1 FAG          4.5330    -2.1610     1.2200 f          1 DC3      -0.134900
      2 CAE          4.9080    -0.9470     0.7890 ca         1 DC3       0.142900
      3 CAF          6.2500    -0.7540     0.5120 ca         1 DC3      -0.188000
      4 CAA          6.6530     0.4870     0.0720 ca         1 DC3       0.128900
      5 FAH          7.9390     0.7160    -0.2040 f          1 DC3      -0.114900
      6 CAB          5.7300     1.5080    -0.0820 ca         1 DC3       0.087900
      7 FAI          6.1460     2.7070    -0.5040 f          1 DC3      -0.118900
      8 CAC          4.4010     1.2900     0.2040 ca         1 DC3      -0.124000
      9 CAD          3.9530     0.0490     0.6530 ca         1 DC3      -0.113300
     10 CAJ          2.4950    -0.1740     0.9260 c3         1 DC3      -0.069100
     11 CAK          1.6940    -0.4640    -0.3580 c3         1 DC3       0.173500
     12 NAM          2.1350    -1.6280    -1.1040 n8         1 DC3      -0.897800
     13 CAL          0.2140    -0.5980    -0.0090 c3         1 DC3      -0.091400
     14 CAN         -0.6440    -0.8090    -1.2470 c3         1 DC3       0.057300
     15 NAO         -2.0590    -0.8130    -0.9230 na         1 DC3       0.103400
     16 CAP         -2.8780     0.2400    -0.7830 cc         1 DC3      -0.241600
     17 NAS         -2.6870    -1.9400    -0.6420 nc         1 DC3      -0.198800
     18 NAR         -3.9020    -1.6510    -0.3300 nd         1 DC3      -0.358000
     19 CAQ         -4.0800    -0.3120    -0.3990 cd         1 DC3       0.326800
     20 CAT         -5.3540     0.3390    -0.1030 ca         1 DC3      -0.103500
     21 CAY         -6.4750    -0.4230     0.2340 ca         1 DC3      -0.099000
     22 CAX         -7.6980     0.1710     0.5230 ca         1 DC3      -0.078300
     23 CAZ         -8.8850    -0.6630     0.9080 c3         1 DC3      -0.046800
     24 CAW         -7.7950     1.5610     0.4680 ca         1 DC3      -0.126000
     25 CAV         -6.6890     2.3300     0.1340 ca         1 DC3      -0.129000
     26 CAU         -5.4730     1.7270    -0.1490 ca         1 DC3      -0.127000
     27 H1           6.9680    -1.5550     0.6370 ha         1 DC3       0.175000
     28 H2           3.6970     2.1040     0.0820 ha         1 DC3       0.157000
     29 H3           2.3520    -0.9950     1.6310 hc         1 DC3       0.065700
     30 H4           2.0880     0.7200     1.4050 hc         1 DC3       0.065700
     31 H5           1.8040     0.4010    -1.0220 h1         1 DC3       0.056700
     32 H6           3.0680    -1.4840    -1.4710 hn         1 DC3       0.352300
     33 H7           2.1850    -2.4380    -0.4970 hn         1 DC3       0.352300
     34 H9           0.0700    -1.4330     0.6850 hc         1 DC3       0.057200
     35 H10         -0.1120     0.3070     0.5080 hc         1 DC3       0.057200
     36 H11         -0.4760    -0.0180    -1.9780 h1         1 DC3       0.080700
     37 H12         -0.4160    -1.7570    -1.7260 h1         1 DC3       0.080700
     38 H13         -2.5570     1.2510    -0.9660 h4         1 DC3       0.183000
     39 H14         -6.3900    -1.5020     0.2690 ha         1 DC3       0.151000
     40 H15         -9.0570    -0.6230     1.9850 hc         1 DC3       0.042700
     41 H16         -9.7950    -0.3080     0.4250 hc         1 DC3       0.042700
     42 H17         -8.7440    -1.7090     0.6380 hc         1 DC3       0.042700
     43 H18         -8.7400     2.0430     0.6870 ha         1 DC3       0.129000
     44 H19         -6.7750     3.4080     0.0940 ha         1 DC3       0.128000
     45 H20         -4.6210     2.3440    -0.4050 ha         1 DC3       0.122000
@<TRIPOS>BOND
     1     1     2 1   
     2     2     3 ar  
     3     2     9 ar  
     4     3     4 ar  
     5     3    27 1   
     6     4     5 1   
     7     4     6 ar  
     8     6     7 1   
     9     6     8 ar  
    10     8     9 ar  
    11     8    28 1   
    12     9    10 1   
    13    10    11 1   
    14    10    29 1   
    15    10    30 1   
    16    11    12 1   
    17    11    13 1   
    18    11    31 1   
    19    12    32 1   
    20    12    33 1   
    21    13    14 1   
    22    13    34 1   
    23    13    35 1   
    24    14    15 1   
    25    14    36 1   
    26    14    37 1   
    27    15    16 1   
    28    15    17 1   
    29    16    19 2   
    30    16    38 1   
    31    17    18 2   
    32    18    19 1   
    33    19    20 1   
    34    20    21 ar  
    35    20    26 ar  
    36    21    22 ar  
    37    21    39 1   
    38    22    23 1   
    39    22    24 ar  
    40    23    40 1   
    41    23    41 1   
    42    23    42 1   
    43    24    25 ar  
    44    24    43 1   
    45    25    26 ar  
    46    25    44 1   
    47    26    45 1   
@<TRIPOS>SUBSTRUCTURE
     1 DC3         1 TEMP              0 ****  ****    0 ROOT
