@<TRIPOS>MOLECULE
DC4
   21    23     1     0     0
SMALL
abcg2


@<TRIPOS>ATOM
      1 CAH          1.2220    -0.8170    -0.0460 ca         1 DC4      -0.047000
      2 CAN          0.0150    -0.1280    -0.0300 cp         1 DC4      -0.086000
      3 CAM         -1.3760    -0.5130    -0.0240 cp         1 DC4      -0.095000
      4 CAF         -2.0660    -1.7210    -0.0280 ca         1 DC4      -0.051000
      5 CAC         -3.4510    -1.6840    -0.0150 ca         1 DC4      -0.133000
      6 CAB         -4.1400    -0.4670     0.0010 ca         1 DC4      -0.083000
      7 CAE         -3.4690     0.7480     0.0060 ca         1 DC4      -0.111000
      8 CAK         -2.0880     0.6880    -0.0070 ca         1 DC4       0.087100
      9 OAI         -1.2530     1.7620    -0.0020 os         1 DC4      -0.176200
     10 CAL          0.0110     1.2690    -0.0160 ca         1 DC4       0.087100
     11 CAG          1.1690     2.0220    -0.0170 ca         1 DC4      -0.104000
     12 CAD          2.3700     1.3300    -0.0320 ca         1 DC4      -0.079000
     13 CAJ          2.3840    -0.0660    -0.0460 ca         1 DC4       0.094000
     14 CL1          3.9150    -0.8820    -0.0660 cl         1 DC4      -0.201000
     15 HAH          1.2540    -1.8980    -0.0570 ha         1 DC4       0.136000
     16 HAF         -1.5390    -2.6660    -0.0410 ha         1 DC4       0.122000
     17 HAC         -4.0120    -2.6090    -0.0180 ha         1 DC4       0.118000
     18 HAB         -5.2210    -0.4710     0.0100 ha         1 DC4       0.118000
     19 HAE         -4.0010     1.6890     0.0210 ha         1 DC4       0.134000
     20 HAG          1.1510     3.1030    -0.0060 ha         1 DC4       0.137000
     21 HAD          3.3010     1.8800    -0.0330 ha         1 DC4       0.133000
@<TRIPOS>BOND
     1     1     2 ar  
     2     1    13 ar  
     3     1    15 1   
     4     2     3 1   
     5     2    10 ar  
     6     3     4 ar  
     7     3     8 ar  
     8     4     5 ar  
     9     4    16 1   
    10     5     6 ar  
    11     5    17 1   
    12     6     7 ar  
    13     6    18 1   
    14     7     8 ar  
    15     7    19 1   
    16     8     9 1   
    17     9    10 1   
    18    10    11 ar  
    19    11    12 ar  
    20    11    20 1   
    21    12    13 ar  
    22    12    21 1   
    23    13    14 1   
@<TRIPOS>SUBSTRUCTURE
     1 DC4         1 TEMP              0 ****  ****    0 ROOT
