@<TRIPOS>MOLECULE
DC4
   21    23     1     0     0
SMALL
No Charge or Current Charge


@<TRIPOS>ATOM
      1 CAH          1.2120    -0.8110    -0.0450 ca         1 DC4      -0.047000
      2 CAN          0.0110    -0.0780    -0.0280 cp         1 DC4      -0.086000
      3 CAM         -1.4000    -0.4680    -0.0210 cp         1 DC4      -0.095000
      4 CAF         -2.0530    -1.7130    -0.0280 ca         1 DC4      -0.051000
      5 CAC         -3.4670    -1.7180    -0.0170 ca         1 DC4      -0.133000
      6 CAB         -4.1980    -0.5020     0.0010 ca         1 DC4      -0.083000
      7 CAE         -3.5270     0.7430     0.0070 ca         1 DC4      -0.111000
      8 CAK         -2.1300     0.7210    -0.0040 ca         1 DC4       0.087100
      9 OAI         -1.2660     1.7970    -0.0000 os         1 DC4      -0.176200
     10 CAL          0.0280     1.3170    -0.0150 ca         1 DC4       0.087100
     11 CAG          1.2160     2.0530    -0.0170 ca         1 DC4      -0.104000
     12 CAD          2.4300     1.3280    -0.0340 ca         1 DC4      -0.079000
     13 CAJ          2.4260    -0.0900    -0.0470 ca         1 DC4       0.094000
     14 Cl1          3.9540    -0.9620    -0.0680 cl         1 DC4      -0.201000
     15 HAH          1.2060    -1.8980    -0.0550 ha         1 DC4       0.136000
     16 HAF         -1.4880    -2.6420    -0.0410 ha         1 DC4       0.122000
     17 HAC         -4.0000    -2.6660    -0.0210 ha         1 DC4       0.118000
     18 HAB         -5.2850    -0.5270     0.0090 ha         1 DC4       0.118000
     19 HAE         -4.0740     1.6820     0.0210 ha         1 DC4       0.134000
     20 HAG          1.2040     3.1400    -0.0070 ha         1 DC4       0.137000
     21 HAD          3.3770     1.8630    -0.0360 ha         1 DC4       0.133000
@<TRIPOS>BOND
     1     1     2 ar  
     2     1    13 ar  
     3     1    15 1   
     4     2     3 1   
     5     2    10 ar  
     6     3     4 ar  
     7     3     8 ar  
     8     4     5 ar  
     9     4    16 1   
    10     5     6 ar  
    11     5    17 1   
    12     6     7 ar  
    13     6    18 1   
    14     7     8 ar  
    15     7    19 1   
    16     8     9 1   
    17     9    10 1   
    18    10    11 ar  
    19    11    12 ar  
    20    11    20 1   
    21    12    13 ar  
    22    12    21 1   
    23    13    14 1   
@<TRIPOS>SUBSTRUCTURE
     1 DC4         1 TEMP              0 ****  ****    0 ROOT
