@<TRIPOS>MOLECULE
DC5
   22    23     1     0     0
SMALL
bcc


@<TRIPOS>ATOM
      1 CA1          0.9260    -0.0370    -0.0050 cp         1 DC5      -0.044000
      2 CA6          1.6340     0.3840    -1.1260 ca         1 DC5      -0.099000
      3 CA5          3.0220     0.3730    -1.1220 ca         1 DC5      -0.131000
      4 CA4          3.7120    -0.0540     0.0050 ca         1 DC5      -0.119000
      5 CA3          3.0080    -0.4730     1.1270 ca         1 DC5      -0.131000
      6 CA2          1.6200    -0.4660     1.1210 ca         1 DC5      -0.099000
      7 CB1         -0.5540    -0.0270    -0.0110 cp         1 DC5      -0.022000
      8 CB2         -1.2800     1.1520     0.1560 ca         1 DC5       0.042400
      9 CB3         -2.6650     1.1770     0.1550 ca         1 DC5      -0.124000
     10 CB4         -3.3600    -0.0090    -0.0190 ca         1 DC5      -0.111000
     11 CB5         -2.6790    -1.2040    -0.1890 ca         1 DC5      -0.124000
     12 CB6         -1.2940    -1.1970    -0.1820 ca         1 DC5       0.042400
     13 CL6         -0.4600    -2.6970    -0.4090 cl         1 DC5      -0.095400
     14 CL1         -0.4290     2.6410     0.3880 cl         1 DC5      -0.095400
     15 HA2          1.0750    -0.7960     1.9970 ha         1 DC5       0.135000
     16 HA6          1.1000     0.7200    -2.0060 ha         1 DC5       0.135000
     17 HA3          3.5390    -0.8080     2.0090 ha         1 DC5       0.132000
     18 HA4          4.7940    -0.0610     0.0090 ha         1 DC5       0.131000
     19 HA5          3.5640     0.7010    -1.9990 ha         1 DC5       0.132000
     20 HB3         -3.1960     2.1090     0.2910 ha         1 DC5       0.152000
     21 HB4         -4.4410    -0.0020    -0.0220 ha         1 DC5       0.141000
     22 HB5         -3.2210    -2.1300    -0.3290 ha         1 DC5       0.152000
@<TRIPOS>BOND
     1     1     2 ar  
     2     1     6 ar  
     3     1     7 1   
     4     2     3 ar  
     5     2    16 1   
     6     3     4 ar  
     7     3    19 1   
     8     4     5 ar  
     9     4    18 1   
    10     5     6 ar  
    11     5    17 1   
    12     6    15 1   
    13     7     8 ar  
    14     7    12 ar  
    15     8     9 ar  
    16     8    14 1   
    17     9    10 ar  
    18     9    20 1   
    19    10    11 ar  
    20    10    21 1   
    21    11    12 ar  
    22    11    22 1   
    23    12    13 1   
@<TRIPOS>SUBSTRUCTURE
     1 DC5         1 TEMP              0 ****  ****    0 ROOT
