@<TRIPOS>MOLECULE
DC5
   22    23     1     0     0
SMALL
No Charge or Current Charge


@<TRIPOS>ATOM
      1 CA1          0.9240    -0.0370    -0.0050 cp         1 DC5      -0.044000
      2 CA6          1.6580     0.5180    -1.0810 ca         1 DC5      -0.081000
      3 CA5          3.0640     0.5090    -1.0770 ca         1 DC5      -0.113000
      4 CA4          3.7600    -0.0550     0.0050 ca         1 DC5      -0.101000
      5 CA3          3.0490    -0.6100     1.0820 ca         1 DC5      -0.113000
      6 CA2          1.6430    -0.6000     1.0770 ca         1 DC5      -0.081000
      7 CB1         -0.5690    -0.0270    -0.0100 cp         1 DC5      -0.022000
      8 CB2         -1.2930     1.1940     0.0440 ca         1 DC5       0.134000
      9 CB3         -2.6990     1.1990     0.0400 ca         1 DC5      -0.106000
     10 CB4         -3.4110    -0.0090    -0.0200 ca         1 DC5      -0.093000
     11 CB5         -2.7140    -1.2260    -0.0750 ca         1 DC5      -0.106000
     12 CB6         -1.3090    -1.2390    -0.0700 ca         1 DC5       0.134000
     13 Cl6         -0.5000    -2.8040    -0.1680 cl         1 DC5      -0.187000
     14 Cl1         -0.4650     2.7490     0.1490 cl         1 DC5      -0.187000
     15 HA2          1.1020    -1.0300     1.9170 ha         1 DC5       0.117000
     16 HA6          1.1280     0.9540    -1.9250 ha         1 DC5       0.117000
     17 HA3          3.5860    -1.0470     1.9210 ha         1 DC5       0.114000
     18 HA4          4.8480    -0.0620     0.0090 ha         1 DC5       0.113000
     19 HA5          3.6120     0.9390    -1.9120 ha         1 DC5       0.114000
     20 HB3         -3.2360     2.1430     0.0860 ha         1 DC5       0.134000
     21 HB4         -4.4990    -0.0020    -0.0240 ha         1 DC5       0.123000
     22 HB5         -3.2630    -2.1630    -0.1250 ha         1 DC5       0.134000
@<TRIPOS>BOND
     1     1     2 ar  
     2     1     6 ar  
     3     1     7 1   
     4     2     3 ar  
     5     2    16 1   
     6     3     4 ar  
     7     3    19 1   
     8     4     5 ar  
     9     4    18 1   
    10     5     6 ar  
    11     5    17 1   
    12     6    15 1   
    13     7     8 ar  
    14     7    12 ar  
    15     8     9 ar  
    16     8    14 1   
    17     9    10 ar  
    18     9    20 1   
    19    10    11 ar  
    20    10    21 1   
    21    11    12 ar  
    22    11    22 1   
    23    12    13 1   
@<TRIPOS>SUBSTRUCTURE
     1 DC5         1 TEMP              0 ****  ****    0 ROOT
