@<TRIPOS>MOLECULE
DC6
   41    41     1     0     0
SMALL
No Charge or Current Charge


@<TRIPOS>ATOM
      1 C3         -23.1240   -31.3380    20.3400 c6         1 DC6      -0.046400
      2 C2         -24.6800   -31.2110    20.2860 c6         1 DC6      -0.235700
      3 C16        -25.0880   -30.0800    19.3550 c          1 DC6       0.625100
      4 C17        -24.9330   -29.3650    16.9840 c3         1 DC6       0.208000
      5 C18        -26.4600   -29.1840    16.7840 c3         1 DC6      -0.107433
      6 C19        -24.1950   -28.0340    17.2800 c3         1 DC6      -0.107433
      7 C20        -24.3160   -30.0440    15.7410 c3         1 DC6      -0.107433
      8 C1         -25.3400   -31.0880    21.6500 c          1 DC6       0.586100
      9 C6         -24.4240   -30.6470    22.7930 c6         1 DC6      -0.181400
     10 C5         -23.0750   -31.4280    22.8850 c6         1 DC6      -0.065400
     11 C4         -22.5770   -32.1390    21.5690 c6         1 DC6      -0.101000
     12 C14        -23.0530   -33.6360    21.5260 c          1 DC6       0.591100
     13 C15        -24.9150   -35.1540    21.7770 c3         1 DC6       0.150900
     14 C7         -21.0110   -32.1160    21.5350 c3         1 DC6      -0.082100
     15 O3         -24.6890   -30.3050    18.0570 os         1 DC6      -0.454100
     16 O2         -25.6790   -29.0870    19.7510 o          1 DC6      -0.492000
     17 O4         -26.5160   -31.3740    21.8330 o          1 DC6      -0.506100
     18 O          -24.3880   -33.8150    21.7820 os         1 DC6      -0.448100
     19 O1         -22.2900   -34.5720    21.3200 o          1 DC6      -0.478000
     20 H1         -22.7600   -31.7910    19.4060 hc         1 DC6       0.066200
     21 H2         -22.6870   -30.3280    20.3630 hc         1 DC6       0.066200
     22 H3         -25.0520   -32.1130    19.7860 hc         1 DC6       0.111700
     23 H4         -26.9110   -28.5860    17.5820 hc         1 DC6       0.049478
     24 H5         -26.6620   -28.6670    15.8380 hc         1 DC6       0.049478
     25 H6         -26.9660   -30.1570    16.7510 hc         1 DC6       0.049478
     26 H7         -24.6890   -27.4560    18.0670 hc         1 DC6       0.049478
     27 H8         -23.1590   -28.2240    17.5870 hc         1 DC6       0.049478
     28 H9         -24.1710   -27.4040    16.3830 hc         1 DC6       0.049478
     29 H10        -23.2430   -30.2210    15.8860 hc         1 DC6       0.049478
     30 H11        -24.7970   -31.0100    15.5450 hc         1 DC6       0.049478
     31 H12        -24.4390   -29.4160    14.8510 hc         1 DC6       0.049478
     32 H13        -24.1330   -29.6200    22.5370 hc         1 DC6       0.076200
     33 H14        -24.9690   -30.6320    23.7460 hc         1 DC6       0.076200
     34 H15        -23.1520   -32.1790    23.6840 hc         1 DC6       0.057200
     35 H16        -22.3100   -30.7250    23.2450 hc         1 DC6       0.057200
     36 H17        -25.9910   -35.1410    21.9940 h1         1 DC6       0.049367
     37 H18        -24.7720   -35.6280    20.7980 h1         1 DC6       0.049367
     38 H19        -24.4230   -35.7720    22.5400 h1         1 DC6       0.049367
     39 H20        -20.5840   -32.6510    22.3930 hc         1 DC6       0.048700
     40 H21        -20.6190   -32.5830    20.6230 hc         1 DC6       0.048700
     41 H22        -20.6220   -31.0910    21.5640 hc         1 DC6       0.048700
@<TRIPOS>BOND
     1     1     2 1   
     2     1    11 1   
     3     1    20 1   
     4     1    21 1   
     5     2     3 1   
     6     2     8 1   
     7     2    22 1   
     8     3    15 1   
     9     3    16 2   
    10     4     5 1   
    11     4     6 1   
    12     4     7 1   
    13     4    15 1   
    14     5    23 1   
    15     5    24 1   
    16     5    25 1   
    17     6    26 1   
    18     6    27 1   
    19     6    28 1   
    20     7    29 1   
    21     7    30 1   
    22     7    31 1   
    23     8     9 1   
    24     8    17 2   
    25     9    10 1   
    26     9    32 1   
    27     9    33 1   
    28    10    11 1   
    29    10    34 1   
    30    10    35 1   
    31    11    12 1   
    32    11    14 1   
    33    12    18 1   
    34    12    19 2   
    35    13    18 1   
    36    13    36 1   
    37    13    37 1   
    38    13    38 1   
    39    14    39 1   
    40    14    40 1   
    41    14    41 1   
@<TRIPOS>SUBSTRUCTURE
     1 DC6         1 TEMP              0 ****  ****    0 ROOT
