@<TRIPOS>MOLECULE
DC6
   41    41     1     0     0
SMALL
abcg2


@<TRIPOS>ATOM
      1 C3         -22.8000   -30.9120    20.9260 c6         1 DC6      -0.046400
      2 C2         -24.2010   -30.8800    20.3130 c6         1 DC6      -0.235700
      3 C16        -24.2840   -30.0020    19.0850 c          1 DC6       0.625100
      4 C17        -25.5900   -29.7410    17.0310 c3         1 DC6       0.208000
      5 C18        -26.0800   -28.3300    17.3340 c3         1 DC6      -0.107433
      6 C19        -24.4380   -29.7450    16.0360 c3         1 DC6      -0.107433
      7 C20        -26.7400   -30.5850    16.4970 c3         1 DC6      -0.107433
      8 C1         -25.1810   -30.3750    21.3590 c          1 DC6       0.586100
      9 C6         -24.9160   -30.8810    22.7550 c6         1 DC6      -0.181400
     10 C5         -24.0640   -32.1430    22.7600 c6         1 DC6      -0.065400
     11 C4         -22.6770   -31.9050    22.1100 c6         1 DC6      -0.101000
     12 C14        -22.1490   -33.2470    21.6250 c          1 DC6       0.591100
     13 C15        -22.4330   -34.9480    20.0140 c3         1 DC6       0.150900
     14 C7         -21.7130   -31.3320    23.1460 c3         1 DC6      -0.082100
     15 O3         -25.2130   -30.4370    18.2580 os         1 DC6      -0.454100
     16 O2         -23.5900   -29.0300    18.9220 o          1 DC6      -0.492000
     17 O4         -26.0770   -29.6090    21.0960 o          1 DC6      -0.506100
     18 O          -22.8010   -33.6790    20.5530 os         1 DC6      -0.448100
     19 O1         -21.2580   -33.8690    22.1460 o          1 DC6      -0.478000
     20 H1         -22.0570   -31.1310    20.1580 hc         1 DC6       0.066200
     21 H2         -22.5590   -29.9130    21.2940 hc         1 DC6       0.066200
     22 H3         -24.5150   -31.8950    20.0480 hc         1 DC6       0.111700
     23 H4         -25.2770   -27.6610    17.6340 hc         1 DC6       0.049478
     24 H5         -26.5380   -27.9170    16.4350 hc         1 DC6       0.049478
     25 H6         -26.8390   -28.3400    18.1170 hc         1 DC6       0.049478
     26 H7         -23.6060   -29.1210    16.3540 hc         1 DC6       0.049478
     27 H8         -24.0700   -30.7580    15.8670 hc         1 DC6       0.049478
     28 H9         -24.7950   -29.3600    15.0810 hc         1 DC6       0.049478
     29 H10        -26.4200   -31.6080    16.2930 hc         1 DC6       0.049478
     30 H11        -27.5710   -30.6170    17.2030 hc         1 DC6       0.049478
     31 H12        -27.1070   -30.1570    15.5650 hc         1 DC6       0.049478
     32 H13        -24.4190   -30.0730    23.3050 hc         1 DC6       0.076200
     33 H14        -25.8690   -31.0460    23.2610 hc         1 DC6       0.076200
     34 H15        -24.6130   -32.9310    22.2380 hc         1 DC6       0.057200
     35 H16        -23.9300   -32.4950    23.7840 hc         1 DC6       0.057200
     36 H17        -23.0870   -35.1110    19.1620 h1         1 DC6       0.049367
     37 H18        -21.3960   -34.9540    19.6800 h1         1 DC6       0.049367
     38 H19        -22.5810   -35.7470    20.7400 h1         1 DC6       0.049367
     39 H20        -21.5620   -32.0180    23.9780 hc         1 DC6       0.048700
     40 H21        -20.7400   -31.1090    22.7060 hc         1 DC6       0.048700
     41 H22        -22.1090   -30.4000    23.5510 hc         1 DC6       0.048700
@<TRIPOS>BOND
     1     1     2 1   
     2     1    11 1   
     3     1    20 1   
     4     1    21 1   
     5     2     3 1   
     6     2     8 1   
     7     2    22 1   
     8     3    15 1   
     9     3    16 2   
    10     4     5 1   
    11     4     6 1   
    12     4     7 1   
    13     4    15 1   
    14     5    23 1   
    15     5    24 1   
    16     5    25 1   
    17     6    26 1   
    18     6    27 1   
    19     6    28 1   
    20     7    29 1   
    21     7    30 1   
    22     7    31 1   
    23     8     9 1   
    24     8    17 2   
    25     9    10 1   
    26     9    32 1   
    27     9    33 1   
    28    10    11 1   
    29    10    34 1   
    30    10    35 1   
    31    11    12 1   
    32    11    14 1   
    33    12    18 1   
    34    12    19 2   
    35    13    18 1   
    36    13    36 1   
    37    13    37 1   
    38    13    38 1   
    39    14    39 1   
    40    14    40 1   
    41    14    41 1   
@<TRIPOS>SUBSTRUCTURE
     1 DC6         1 TEMP              0 ****  ****    0 ROOT
