@<TRIPOS>MOLECULE
DC7
   44    46     1     0     0
SMALL
No Charge or Current Charge


@<TRIPOS>ATOM
      1 C4         -13.4100     4.7110     0.1800 ca         1 DC7      -0.165000
      2 C5         -14.0800     3.5490    -0.2410 ca         1 DC7       0.337900
      3 C6         -12.0760     2.4340    -0.5830 ca         1 DC7       0.358900
      4 N1         -13.4310     2.4230    -0.6190 nb         1 DC7      -0.667000
      5 C7          -9.6390     2.9080     2.2520 c3         1 DC7       0.128500
      6 C8          -9.3130     1.8730     3.3160 cc         1 DC7       0.425700
      7 N2          -8.3670     2.0330     4.2360 nd         1 DC7      -0.626000
      8 C9          -8.3030     0.9140     5.0650 cd         1 DC7       0.301300
      9 C10         -9.2180    -0.0710     4.7430 cc         1 DC7      -0.276000
     10 C11         -7.2920     0.8010     6.2310 c6         1 DC7       0.176700
     11 C12         -5.8460     1.0850     5.7220 c6         1 DC7      -0.105900
     12 N3          -5.3210     0.4380     8.1050 n7         1 DC7      -0.885400
     13 C13         -4.7460     0.7970     6.7850 c6         1 DC7       0.155800
     14 C14         -6.2210    -0.7420     8.0290 c6         1 DC7       0.155800
     15 C15         -7.2860    -0.6080     6.8990 c6         1 DC7      -0.105900
     16 O           -7.5700     1.7480     7.2670 oh         1 DC7      -0.652000
     17 S          -10.2010     0.3760     3.3790 ss         1 DC7      -0.001400
     18 N           -9.2850     2.5310     0.8430 n3         1 DC7      -0.740600
     19 C           -7.8370     2.2690     0.6640 c3         1 DC7       0.153100
     20 C2         -11.3250     3.5530    -0.1770 ca         1 DC7      -0.147300
     21 C3         -12.0070     4.7200     0.2150 ca         1 DC7      -0.071000
     22 H1         -13.9790     5.5880     0.4740 ha         1 DC7       0.124000
     23 H2         -15.1680     3.5180    -0.2770 h4         1 DC7       0.019100
     24 H3         -11.5780     1.5140    -0.8910 h4         1 DC7       0.031100
     25 H4          -9.1350     3.8460     2.5240 h1         1 DC7       0.064700
     26 H5         -10.7160     3.1020     2.3320 h1         1 DC7       0.064700
     27 H6          -9.3840    -1.0290     5.2160 h4         1 DC7       0.156000
     28 H7          -5.6440     0.4750     4.8310 hc         1 DC7       0.055700
     29 H8          -5.7650     2.1290     5.3920 hc         1 DC7       0.055700
     30 H9          -4.5540     0.2300     8.7610 hn         1 DC7       0.420000
     31 H11         -4.1100    -0.0290     6.4330 h1         1 DC7       0.034200
     32 H12         -4.1000     1.6810     6.8960 h1         1 DC7       0.034200
     33 H13         -6.7250    -0.8670     8.9980 h1         1 DC7       0.034200
     34 H14         -5.6220    -1.6480     7.8530 h1         1 DC7       0.034200
     35 H15         -8.2760    -0.8390     7.3140 hc         1 DC7       0.055700
     36 H16         -7.0860    -1.3730     6.1370 hc         1 DC7       0.055700
     37 H17         -6.8150     1.5560     7.8840 ho         1 DC7       0.472000
     38 H19         -7.4930     1.4770     1.3420 h1         1 DC7       0.036700
     39 H20         -7.6250     1.9420    -0.3620 h1         1 DC7       0.036700
     40 H21         -7.2470     3.1740     0.8650 h1         1 DC7       0.036700
     41 H22         -9.4790     3.1810    -1.1690 h1         1 DC7       0.043200
     42 H23         -9.3960     4.4870     0.0140 h1         1 DC7       0.043200
     43 H24        -11.4660     5.6080     0.5370 ha         1 DC7       0.116000
     44 C1          -9.8070     3.4840    -0.1650 c3         1 DC7       0.227100
@<TRIPOS>BOND
     1     1     2 ar  
     2     1    21 ar  
     3     1    22 1   
     4     2     4 ar  
     5     2    23 1   
     6     3     4 ar  
     7     3    20 ar  
     8     3    24 1   
     9     5     6 1   
    10     5    18 1   
    11     5    25 1   
    12     5    26 1   
    13     6     7 2   
    14     6    17 1   
    15     7     8 1   
    16     8     9 2   
    17     8    10 1   
    18     9    17 1   
    19     9    27 1   
    20    10    11 1   
    21    10    15 1   
    22    10    16 1   
    23    11    13 1   
    24    11    28 1   
    25    11    29 1   
    26    12    13 1   
    27    12    14 1   
    28    12    30 1   
    29    13    31 1   
    30    13    32 1   
    31    14    15 1   
    32    14    33 1   
    33    14    34 1   
    34    15    35 1   
    35    15    36 1   
    36    16    37 1   
    37    18    19 1   
    38    18    44 1   
    39    19    38 1   
    40    19    39 1   
    41    19    40 1   
    42    20    21 ar  
    43    20    44 1   
    44    21    43 1   
    45    41    44 1   
    46    42    44 1   
@<TRIPOS>SUBSTRUCTURE
     1 DC7         1 TEMP              0 ****  ****    0 ROOT
