@<TRIPOS>MOLECULE
DC7
   44    46     1     0     0
SMALL
bcc


@<TRIPOS>ATOM
      1 C4         -13.2880     4.6910     0.7160 ca         1 DC7      -0.248300
      2 C5         -13.9130     3.4890     1.0010 ca         1 DC7       0.403200
      3 C6         -12.0420     2.3000     0.4900 ca         1 DC7       0.424200
      4 N1         -13.3050     2.3110     0.8910 nb         1 DC7      -0.667000
      5 C7          -8.9150     3.0430     1.9050 c3         1 DC7       0.128500
      6 C8          -8.6860     1.9360     2.8820 cc         1 DC7       0.425700
      7 N2          -8.0620     2.0270     4.0060 nd         1 DC7      -0.626000
      8 C9          -8.0890     0.8440     4.7020 cd         1 DC7       0.366600
      9 C10         -8.7530    -0.1610     4.0730 cc         1 DC7      -0.214400
     10 C11         -7.3970     0.7860     6.0380 c6         1 DC7       0.153500
     11 C12         -5.8900     1.0300     5.8620 c6         1 DC7      -0.105900
     12 N3          -6.0680     0.5760     8.2670 n7         1 DC7      -0.830200
     13 C13         -5.1820     1.0920     7.2300 c6         1 DC7       0.155800
     14 C14         -6.5930    -0.7310     7.8990 c6         1 DC7       0.155800
     15 C15         -7.5770    -0.5760     6.7240 c6         1 DC7      -0.105900
     16 O           -7.9760     1.8170     6.8210 oh         1 DC7      -0.589800
     17 S           -9.3610     0.3770     2.5610 ss         1 DC7      -0.146300
     18 N           -9.0870     2.5020     0.5740 n3         1 DC7      -0.740600
     19 C           -7.8190     2.1490    -0.0340 c3         1 DC7       0.153100
     20 C2         -11.3140     3.4460     0.1750 ca         1 DC7      -0.212600
     21 C3         -11.9650     4.6650     0.2980 ca         1 DC7      -0.089000
     22 H1         -13.8230     5.6250     0.8250 ha         1 DC7       0.142000
     23 H2         -14.9460     3.4730     1.3310 h4         1 DC7       0.019100
     24 H3         -11.5670     1.3270     0.4130 h4         1 DC7       0.031100
     25 H4          -8.0970     3.7730     1.9830 h1         1 DC7       0.064700
     26 H5          -9.8290     3.5650     2.2040 h1         1 DC7       0.064700
     27 H6          -8.9040    -1.1770     4.4000 h4         1 DC7       0.174000
     28 H7          -5.4770     0.2190     5.2580 hc         1 DC7       0.055700
     29 H8          -5.7230     1.9530     5.3060 hc         1 DC7       0.055700
     30 H9          -5.5770     0.5260     9.1500 hn         1 DC7       0.364800
     31 H11         -4.2390     0.5320     7.1780 h1         1 DC7       0.034200
     32 H12         -4.9270     2.1230     7.4830 h1         1 DC7       0.034200
     33 H13         -7.0990    -1.1610     8.7620 h1         1 DC7       0.034200
     34 H14         -5.7870    -1.4280     7.6270 h1         1 DC7       0.034200
     35 H15         -8.6100    -0.6670     7.0660 hc         1 DC7       0.055700
     36 H16         -7.4070    -1.3830     6.0110 hc         1 DC7       0.055700
     37 H17         -7.5370     1.7250     7.6870 ho         1 DC7       0.433000
     38 H19         -7.2650     1.4740     0.6190 h1         1 DC7       0.036700
     39 H20         -7.9910     1.6310    -0.9770 h1         1 DC7       0.036700
     40 H21         -7.1820     3.0220    -0.2340 h1         1 DC7       0.036700
     41 H22         -9.8750     2.8950    -1.2900 h1         1 DC7       0.043200
     42 H23         -9.4680     4.3560    -0.4120 h1         1 DC7       0.043200
     43 H24        -11.4430     5.5880     0.0720 ha         1 DC7       0.134000
     44 C1          -9.8890     3.3460    -0.2930 c3         1 DC7       0.227100
@<TRIPOS>BOND
     1     1     2 ar  
     2     1    21 ar  
     3     1    22 1   
     4     2     4 ar  
     5     2    23 1   
     6     3     4 ar  
     7     3    20 ar  
     8     3    24 1   
     9     5     6 1   
    10     5    18 1   
    11     5    25 1   
    12     5    26 1   
    13     6     7 2   
    14     6    17 1   
    15     7     8 1   
    16     8     9 2   
    17     8    10 1   
    18     9    17 1   
    19     9    27 1   
    20    10    11 1   
    21    10    15 1   
    22    10    16 1   
    23    11    13 1   
    24    11    28 1   
    25    11    29 1   
    26    12    13 1   
    27    12    14 1   
    28    12    30 1   
    29    13    31 1   
    30    13    32 1   
    31    14    15 1   
    32    14    33 1   
    33    14    34 1   
    34    15    35 1   
    35    15    36 1   
    36    16    37 1   
    37    18    19 1   
    38    18    44 1   
    39    19    38 1   
    40    19    39 1   
    41    19    40 1   
    42    20    21 ar  
    43    20    44 1   
    44    21    43 1   
    45    41    44 1   
    46    42    44 1   
@<TRIPOS>SUBSTRUCTURE
     1 DC7         1 TEMP              0 ****  ****    0 ROOT
