@<TRIPOS>MOLECULE
DC8
   39    42     1     0     0
SMALL
bcc


@<TRIPOS>ATOM
      1 C4          -1.3120    -1.3140    -0.2450 ca         1 DC8       0.107100
      2 C6           0.7590    -0.7260     0.7030 c6         1 DC8       0.214400
      3 C8           0.2140     0.6560     1.0420 c5         1 DC8      -0.092700
      4 C10          0.3150     1.6840    -0.1010 c5         1 DC8      -0.121400
      5 C15         -1.2760     0.5880     1.4170 c5         1 DC8      -0.012400
      6 C17         -2.0030    -0.4490     0.5950 ca         1 DC8      -0.107300
      7 C20          3.1660    -0.6340     1.3650 ca         1 DC8      -0.072000
      8 C21          4.5210    -0.5560     1.0920 ca         1 DC8      -0.196000
      9 C22          4.9620    -0.5460    -0.2300 ca         1 DC8       0.146100
     10 C24          4.0290    -0.6150    -1.2590 ca         1 DC8      -0.196000
     11 C1          -4.0850    -1.4940    -0.0800 ca         1 DC8       0.113100
     12 C2          -3.3810    -2.3390    -0.9370 ca         1 DC8      -0.128000
     13 C3          -2.0050    -2.2510    -1.0080 ca         1 DC8      -0.116000
     14 O5           0.0420    -1.2920    -0.3760 os         1 DC8      -0.317900
     15 C11         -1.0370     2.3880    -0.1330 c5         1 DC8       0.419600
     16 F12         -0.9210     3.7410    -0.2900 f          1 DC8      -0.237800
     17 F13         -1.7640     1.9730    -1.2190 f          1 DC8      -0.237800
     18 C14         -1.7530     2.0170     1.1460 c5         1 DC8      -0.123400
     19 C18         -3.3900    -0.5620     0.6750 ca         1 DC8      -0.185000
     20 C19          2.2200    -0.6970     0.3440 ca         1 DC8      -0.127300
     21 O23          6.2900    -0.4740    -0.4520 oh         1 DC8      -0.493100
     22 C25          2.6730    -0.6880    -0.9700 ca         1 DC8      -0.072000
     23 O26         -5.4310    -1.6270    -0.0270 oh         1 DC8      -0.495100
     24 H6           0.6260    -1.3610     1.5920 h1         1 DC8       0.053700
     25 H8           0.7680     1.0240     1.9090 hc         1 DC8       0.065700
     26 H101         1.1110     2.4040     0.0850 hc         1 DC8       0.080200
     27 H102         0.5210     1.2280    -1.0700 hc         1 DC8       0.080200
     28 H15         -1.3960     0.3440     2.4750 hc         1 DC8       0.069700
     29 H20          2.8420    -0.6470     2.4000 ha         1 DC8       0.138500
     30 H21          5.2400    -0.5100     1.9000 ha         1 DC8       0.141000
     31 H24          4.3540    -0.6120    -2.2930 ha         1 DC8       0.141000
     32 H2          -3.9120    -3.0710    -1.5330 ha         1 DC8       0.150000
     33 H3          -1.4540    -2.9160    -1.6630 ha         1 DC8       0.148000
     34 H141        -2.8350     2.1360     1.0790 hc         1 DC8       0.073200
     35 H142        -1.3920     2.6660     1.9480 hc         1 DC8       0.073200
     36 H18         -3.9330     0.1020     1.3410 ha         1 DC8       0.128000
     37 HO23         6.4720    -0.4760    -1.3980 ho         1 DC8       0.427000
     38 H25          1.9740    -0.7420    -1.7930 ha         1 DC8       0.138500
     39 HO26        -5.8040    -0.9940     0.5950 ho         1 DC8       0.423000
@<TRIPOS>BOND
     1     1     6 ar  
     2     1    13 ar  
     3     1    14 1   
     4     2     3 1   
     5     2    14 1   
     6     2    20 1   
     7     2    24 1   
     8     3     4 1   
     9     3     5 1   
    10     3    25 1   
    11     4    15 1   
    12     4    26 1   
    13     4    27 1   
    14     5     6 1   
    15     5    18 1   
    16     5    28 1   
    17     6    19 ar  
    18     7     8 ar  
    19     7    20 ar  
    20     7    29 1   
    21     8     9 ar  
    22     8    30 1   
    23     9    10 ar  
    24     9    21 1   
    25    10    22 ar  
    26    10    31 1   
    27    11    12 ar  
    28    11    19 ar  
    29    11    23 1   
    30    12    13 ar  
    31    12    32 1   
    32    13    33 1   
    33    15    16 1   
    34    15    17 1   
    35    15    18 1   
    36    18    34 1   
    37    18    35 1   
    38    19    36 1   
    39    20    22 ar  
    40    21    37 1   
    41    22    38 1   
    42    23    39 1   
@<TRIPOS>SUBSTRUCTURE
     1 DC8         1 TEMP              0 ****  ****    0 ROOT
