@<TRIPOS>MOLECULE
DC8
   39    42     1     0     0
SMALL
No Charge or Current Charge


@<TRIPOS>ATOM
      1 C4          -1.2880    -1.4430    -0.1320 ca         1 DC8       0.107100
      2 C6           0.8320    -0.7450     0.8610 c6         1 DC8       0.237600
      3 C8           0.1970     0.6530     1.0280 c5         1 DC8      -0.092700
      4 C10          0.1020     1.5200    -0.2780 c5         1 DC8      -0.121400
      5 C15         -1.2700     0.5490     1.5150 c5         1 DC8      -0.012400
      6 C17         -2.0030    -0.4640     0.6120 ca         1 DC8      -0.107300
      7 C20          3.3050    -0.6710     1.4560 ca         1 DC8      -0.054000
      8 C21          4.6640    -0.5980     1.1040 ca         1 DC8      -0.178000
      9 C22          5.0400    -0.5290    -0.2440 ca         1 DC8       0.146100
     10 C24          4.0590    -0.5310    -1.2470 ca         1 DC8      -0.178000
     11 C1          -4.0950    -1.4060    -0.2520 ca         1 DC8       0.113100
     12 C2          -3.3760    -2.3400    -1.0100 ca         1 DC8      -0.110000
     13 C3          -1.9740    -2.3590    -0.9470 ca         1 DC8      -0.098000
     14 O5           0.0920    -1.5160    -0.1080 os         1 DC8      -0.341100
     15 C11         -1.1780     2.3960    -0.1030 c5         1 DC8       0.177000
     16 F12         -0.8700     3.7530    -0.1560 f          1 DC8      -0.116500
     17 F13         -2.1010     2.1360    -1.1150 f          1 DC8      -0.116500
     18 C14         -1.7550     2.0130     1.2890 c5         1 DC8      -0.123400
     19 C18         -3.4160    -0.4810     0.5580 ca         1 DC8      -0.167000
     20 C19          2.3110    -0.6760     0.4550 ca         1 DC8      -0.127300
     21 O23          6.3610    -0.4580    -0.5730 oh         1 DC8      -0.532100
     22 C25          2.6980    -0.6050    -0.9000 ca         1 DC8      -0.054000
     23 O26         -5.4580    -1.4030    -0.3010 oh         1 DC8      -0.534100
     24 H6           0.7580    -1.2720     1.8240 h1         1 DC8       0.053700
     25 H8           0.8050     1.1690     1.7810 hc         1 DC8       0.065700
     26 H101         1.0020     2.1290    -0.4160 hc         1 DC8       0.080200
     27 H102         0.0140     0.9000    -1.1770 hc         1 DC8       0.080200
     28 H15         -1.3330     0.2570     2.5710 hc         1 DC8       0.069700
     29 H20          3.0240    -0.7210     2.5060 ha         1 DC8       0.120500
     30 H21          5.4250    -0.5940     1.8810 ha         1 DC8       0.123000
     31 H24          4.3410    -0.4770    -2.2960 ha         1 DC8       0.123000
     32 H2          -3.9030    -3.0540    -1.6380 ha         1 DC8       0.132000
     33 H3          -1.4150    -3.0900    -1.5250 ha         1 DC8       0.130000
     34 H141        -2.8410     2.1360     1.3390 hc         1 DC8       0.073200
     35 H142        -1.3420     2.6690     2.0650 hc         1 DC8       0.073200
     36 H18         -3.9900     0.2240     1.1530 ha         1 DC8       0.110000
     37 HO23         6.4350    -0.4170    -1.5500 ho         1 DC8       0.466000
     38 H25          1.9470    -0.6050    -1.6870 ha         1 DC8       0.120500
     39 HO26        -5.7890    -0.6900     0.2860 ho         1 DC8       0.462000
@<TRIPOS>BOND
     1     1     6 ar  
     2     1    13 ar  
     3     1    14 1   
     4     2     3 1   
     5     2    14 1   
     6     2    20 1   
     7     2    24 1   
     8     3     4 1   
     9     3     5 1   
    10     3    25 1   
    11     4    15 1   
    12     4    26 1   
    13     4    27 1   
    14     5     6 1   
    15     5    18 1   
    16     5    28 1   
    17     6    19 ar  
    18     7     8 ar  
    19     7    20 ar  
    20     7    29 1   
    21     8     9 ar  
    22     8    30 1   
    23     9    10 ar  
    24     9    21 1   
    25    10    22 ar  
    26    10    31 1   
    27    11    12 ar  
    28    11    19 ar  
    29    11    23 1   
    30    12    13 ar  
    31    12    32 1   
    32    13    33 1   
    33    15    16 1   
    34    15    17 1   
    35    15    18 1   
    36    18    34 1   
    37    18    35 1   
    38    19    36 1   
    39    20    22 ar  
    40    21    37 1   
    41    22    38 1   
    42    23    39 1   
@<TRIPOS>SUBSTRUCTURE
     1 DC8         1 TEMP              0 ****  ****    0 ROOT
