@<TRIPOS>MOLECULE
DCA
   79    81     1     0     0
SMALL
No Charge or Current Charge


@<TRIPOS>ATOM
      1 N1A        -25.0400   112.3770    39.8010 nb         1 DCA      -0.348000
      2 C2A        -26.0200   113.2430    40.1560 ca         1 DCA       0.108900
      3 N3A        -27.0000   113.0270    41.0650 nb         1 DCA      -0.158000
      4 C4A        -26.9890   111.8210    41.6720 ca         1 DCA       0.111500
      5 C5A        -26.0390   110.8710    41.3850 ca         1 DCA      -0.080600
      6 C6A        -25.0570   111.1860    40.4180 ca         1 DCA       0.402900
      7 N6A        -24.0670   110.3250    40.0610 nv         1 DCA      -1.102900
      8 N7A        -26.2070   109.7090    42.1310 nc         1 DCA      -0.634100
      9 C8A        -27.2970   110.0080    42.8750 cd         1 DCA       0.490700
     10 N9A        -27.8190   111.2900    42.6250 na         1 DCA      -0.240300
     11 C1B        -29.0040   111.8850    43.2300 c5         1 DCA       0.276300
     12 C2B        -30.3830   111.4310    42.6590 c5         1 DCA       0.148300
     13 O2B        -30.6710   111.8500    41.3030 oh         1 DCA      -0.839000
     14 C3B        -31.3000   112.0360    43.7870 c5         1 DCA       0.192300
     15 O3B        -31.3940   113.4870    43.6690 os         1 DCA      -0.607400
     16 P3B        -32.6270   114.0610    42.8150 p5         1 DCA       1.299900
     17 O7A        -32.5270   113.4960    41.4450 o          1 DCA      -0.907500
     18 O8A        -32.5300   115.5430    42.7600 o          1 DCA      -0.907500
     19 O9A        -33.9070   113.6580    43.4530 o          1 DCA      -0.907500
     20 C4B        -30.4470   111.7420    45.0730 c5         1 DCA       0.145300
     21 O4B        -29.0840   111.4910    44.6150 os         1 DCA      -0.491000
     22 C5B        -30.9600   110.5480    45.9270 c3         1 DCA       0.212600
     23 O5B        -31.2490   109.4260    45.0750 os         1 DCA      -0.621400
     24 P1A        -30.7980   107.9500    45.5340 p5         1 DCA       1.486800
     25 O1A        -31.4170   106.9480    44.6180 o          1 DCA      -0.866000
     26 O2A        -31.1900   107.7270    46.9560 o          1 DCA      -0.866000
     27 O3A        -29.2630   108.1180    45.2230 os         1 DCA      -0.741800
     28 P2A        -28.2450   107.4930    46.2470 p5         1 DCA       1.495800
     29 O4A        -28.2910   108.1470    47.5880 o          1 DCA      -0.863000
     30 O5A        -26.8650   107.5930    45.6860 o          1 DCA      -0.863000
     31 O6A        -28.7210   105.9530    46.2850 os         1 DCA      -0.618400
     32 CBP        -28.8730   103.6390    45.4850 c3         1 DCA      -0.031000
     33 CCP        -28.3580   105.0880    45.2000 c3         1 DCA       0.214600
     34 CDP        -28.4410   102.7370    44.2910 c3         1 DCA      -0.084100
     35 CEP        -30.4300   103.6550    45.5430 c3         1 DCA      -0.084100
     36 CAP        -28.2880   103.0940    46.8440 c3         1 DCA       0.096300
     37 OAP        -28.8320   101.7740    47.1460 oh         1 DCA      -0.683000
     38 C9P        -26.7230   103.1020    46.9000 c          1 DCA       0.549100
     39 O9P        -26.0700   104.0620    47.2860 o          1 DCA      -0.550100
     40 N8P        -26.1190   101.9090    46.5520 ns         1 DCA      -0.529900
     41 C7P        -24.6790   101.6540    46.5700 c3         1 DCA       0.119000
     42 C6P        -24.1690   101.3550    47.9900 c3         1 DCA      -0.182400
     43 C5P        -22.6750   101.0440    47.9670 c          1 DCA       0.591100
     44 O5P        -21.8240   101.9060    47.8060 o          1 DCA      -0.600100
     45 N4P        -22.3490    99.7240    48.1770 ns         1 DCA      -0.524900
     46 C3P        -20.9830    99.2060    48.2070 c3         1 DCA       0.107000
     47 C2P        -20.9620    97.6810    48.3980 c3         1 DCA      -0.108100
     48 H2A        -26.0180   114.2120    39.6620 h5         1 DCA       0.009100
     49 H61A       -23.9300   109.5140    40.6590 hn         1 DCA       0.480500
     50 H62A       -23.2450   110.7010    39.5960 hn         1 DCA       0.480500
     51 H8A        -27.7650   109.3530    43.6020 h5         1 DCA       0.141800
     52 H1B        -28.8930   112.9750    43.1530 h2         1 DCA       0.089700
     53 H2B        -30.4360   110.3340    42.7070 h1         1 DCA       0.055700
     54 HO2A       -31.4330   112.5420    41.3670 ho         1 DCA       0.609000
     55 H3B        -32.2980   111.5750    43.8260 h1         1 DCA       0.090700
     56 H4B        -30.4260   112.6240    45.7270 h1         1 DCA       0.057700
     57 H51A       -30.2030   110.3050    46.6850 h1         1 DCA       0.033700
     58 H52A       -31.8720   110.8600    46.4530 h1         1 DCA       0.033700
     59 H121       -28.7960   105.4510    44.2590 h1         1 DCA       0.051200
     60 H122       -27.2680   105.0680    45.0630 h1         1 DCA       0.051200
     61 H131       -28.7690   101.7000    44.4350 hc         1 DCA       0.036867
     62 H132       -28.8820   103.0960    43.3530 hc         1 DCA       0.036867
     63 H133       -27.3520   102.7350    44.1630 hc         1 DCA       0.036867
     64 H141       -30.8380   102.6420    45.6350 hc         1 DCA       0.036867
     65 H142       -30.7880   104.2410    46.3980 hc         1 DCA       0.036867
     66 H143       -30.8500   104.0970    44.6310 hc         1 DCA       0.036867
     67 H10        -28.5960   103.7960    47.6320 h1         1 DCA       0.110700
     68 HO1        -28.6060   101.5660    48.0800 ho         1 DCA       0.415000
     69 HN8        -26.7470   101.1590    46.2800 hn         1 DCA       0.316500
     70 H71        -24.4690   100.7950    45.9170 h1         1 DCA       0.057200
     71 H72        -24.1520   102.5260    46.1590 h1         1 DCA       0.057200
     72 H61        -24.3350   102.2390    48.6160 hc         1 DCA       0.064700
     73 H62        -24.7280   100.5020    48.3900 hc         1 DCA       0.064700
     74 HN4        -23.1170    99.0770    48.3140 hn         1 DCA       0.306500
     75 H31        -20.4820    99.4640    47.2650 h1         1 DCA       0.047200
     76 H32        -20.4380    99.6860    49.0310 h1         1 DCA       0.047200
     77 H21        -19.9290    97.3150    48.4170 hc         1 DCA       0.033700
     78 H22        -21.4430    97.4020    49.3430 hc         1 DCA       0.033700
     79 H23        -21.4880    97.1810    47.5760 hc         1 DCA       0.033700
@<TRIPOS>BOND
     1     1     2 ar  
     2     1     6 ar  
     3     2     3 ar  
     4     2    48 1   
     5     3     4 ar  
     6     4     5 ar  
     7     4    10 1   
     8     5     6 ar  
     9     5     8 1   
    10     6     7 1   
    11     7    49 1   
    12     7    50 1   
    13     8     9 2   
    14     9    10 1   
    15     9    51 1   
    16    10    11 1   
    17    11    12 1   
    18    11    21 1   
    19    11    52 1   
    20    12    13 1   
    21    12    14 1   
    22    12    53 1   
    23    13    54 1   
    24    14    15 1   
    25    14    20 1   
    26    14    55 1   
    27    15    16 1   
    28    16    17 1   
    29    16    18 1   
    30    16    19 1   
    31    20    21 1   
    32    20    22 1   
    33    20    56 1   
    34    22    23 1   
    35    22    57 1   
    36    22    58 1   
    37    23    24 1   
    38    24    25 1   
    39    24    26 1   
    40    24    27 1   
    41    27    28 1   
    42    28    29 1   
    43    28    30 1   
    44    28    31 1   
    45    31    33 1   
    46    32    33 1   
    47    32    34 1   
    48    32    35 1   
    49    32    36 1   
    50    33    59 1   
    51    33    60 1   
    52    34    61 1   
    53    34    62 1   
    54    34    63 1   
    55    35    64 1   
    56    35    65 1   
    57    35    66 1   
    58    36    37 1   
    59    36    38 1   
    60    36    67 1   
    61    37    68 1   
    62    38    39 2   
    63    38    40 1   
    64    40    41 1   
    65    40    69 1   
    66    41    42 1   
    67    41    70 1   
    68    41    71 1   
    69    42    43 1   
    70    42    72 1   
    71    42    73 1   
    72    43    44 2   
    73    43    45 1   
    74    45    46 1   
    75    45    74 1   
    76    46    47 1   
    77    46    75 1   
    78    46    76 1   
    79    47    77 1   
    80    47    78 1   
    81    47    79 1   
@<TRIPOS>SUBSTRUCTURE
     1 DCA         1 TEMP              0 ****  ****    0 ROOT
