@<TRIPOS>MOLECULE
DCA
   79    81     1     0     0
SMALL
abcg2


@<TRIPOS>ATOM
      1 N1A        -26.6030   113.6720    38.4010 nb         1 DCA      -0.348000
      2 C2A        -27.4880   114.4170    39.0740 ca         1 DCA       0.108900
      3 N3A        -28.1720   114.0990    40.1700 nb         1 DCA      -0.158000
      4 C4A        -27.8830   112.8650    40.6000 ca         1 DCA       0.111500
      5 C5A        -26.9830   111.9810    40.0070 ca         1 DCA      -0.080600
      6 C6A        -26.3250   112.4310    38.8470 ca         1 DCA       0.402900
      7 N6A        -25.4490   111.6740    38.1650 nv         1 DCA      -1.102900
      8 N7A        -26.9270   110.7940    40.7180 nc         1 DCA      -0.634100
      9 C8A        -27.7740   110.9590    41.7060 cd         1 DCA       0.490700
     10 N9A        -28.3870   112.1940    41.6910 na         1 DCA      -0.240300
     11 C1B        -29.3850   112.6760    42.6270 c5         1 DCA       0.276300
     12 C2B        -30.6680   111.8300    42.6460 c5         1 DCA       0.148300
     13 O2B        -31.5420   112.1820    41.6110 oh         1 DCA      -0.839000
     14 C3B        -31.1560   112.0400    44.0890 c5         1 DCA       0.192300
     15 O3B        -31.8550   113.2630    44.2400 os         1 DCA      -0.607400
     16 P3B        -33.5350   113.2710    44.1150 p5         1 DCA       1.299900
     17 O7A        -33.7940   112.8370    42.6590 o          1 DCA      -0.907500
     18 O8A        -33.8690   114.7200    44.3960 o          1 DCA      -0.907500
     19 O9A        -34.0430   112.2640    45.1310 o          1 DCA      -0.907500
     20 C4B        -29.8400   112.1290    44.8690 c5         1 DCA       0.145300
     21 O4B        -28.8500   112.6360    43.9380 os         1 DCA      -0.491000
     22 C5B        -29.3550   110.8380    45.4910 c3         1 DCA       0.212600
     23 O5B        -29.1910   109.8440    44.4800 os         1 DCA      -0.621400
     24 P1A        -29.1890   108.2650    44.8530 p5         1 DCA       1.486800
     25 O1A        -28.9220   107.5590    43.5660 o          1 DCA      -0.866000
     26 O2A        -30.3900   107.9210    45.6700 o          1 DCA      -0.866000
     27 O3A        -27.8390   108.2180    45.7670 os         1 DCA      -0.741800
     28 P2A        -27.4190   107.3490    47.0860 p5         1 DCA       1.495800
     29 O4A        -28.2220   107.7760    48.2680 o          1 DCA      -0.863000
     30 O5A        -25.9260   107.4000    47.1310 o          1 DCA      -0.863000
     31 O6A        -27.9330   105.8620    46.7060 os         1 DCA      -0.618400
     32 CBP        -28.0040   103.7880    45.4410 c3         1 DCA      -0.031000
     33 CCP        -27.3060   105.1350    45.6410 c3         1 DCA       0.214600
     34 CDP        -27.3120   103.0800    44.2700 c3         1 DCA      -0.084100
     35 CEP        -29.4810   104.0300    45.1000 c3         1 DCA      -0.084100
     36 CAP        -27.9240   102.9340    46.7360 c3         1 DCA       0.096300
     37 OAP        -28.6840   101.7410    46.5330 oh         1 DCA      -0.683000
     38 C9P        -26.4840   102.6100    47.1510 c          1 DCA       0.549100
     39 O9P        -25.7760   103.4500    47.7110 o          1 DCA      -0.550100
     40 N8P        -26.0630   101.3730    46.8490 ns         1 DCA      -0.529900
     41 C7P        -24.7350   100.8870    47.1660 c3         1 DCA       0.119000
     42 C6P        -24.6520   100.2990    48.5820 c3         1 DCA      -0.182400
     43 C5P        -23.2310    99.8880    48.9070 c          1 DCA       0.591100
     44 O5P        -22.3200   100.7210    48.9650 o          1 DCA      -0.600100
     45 N4P        -23.0210    98.5770    49.1020 ns         1 DCA      -0.524900
     46 C3P        -21.7080    98.0170    49.3990 c3         1 DCA       0.107000
     47 C2P        -21.7800    96.5010    49.4740 c3         1 DCA      -0.108100
     48 H2A        -27.6680   115.4080    38.6680 h5         1 DCA       0.009100
     49 H61A       -25.1690   110.7750    38.5170 hn         1 DCA       0.480500
     50 H62A       -24.9510   112.0680    37.3840 hn         1 DCA       0.480500
     51 H8A        -27.9920   110.2430    42.4830 h5         1 DCA       0.141800
     52 H1B        -29.6170   113.6990    42.3250 h2         1 DCA       0.089700
     53 H2B        -30.3760   110.7800    42.5530 h1         1 DCA       0.055700
     54 HO2A       -32.4370   112.4610    42.0010 ho         1 DCA       0.609000
     55 H3B        -31.7690   111.2060    44.4370 h1         1 DCA       0.090700
     56 H4B        -29.9540   112.8640    45.6690 h1         1 DCA       0.057700
     57 H51A       -28.3960   111.0080    45.9880 h1         1 DCA       0.033700
     58 H52A       -30.0820   110.5090    46.2370 h1         1 DCA       0.033700
     59 H121       -27.3940   105.7070    44.7150 h1         1 DCA       0.051200
     60 H122       -26.2510   104.9960    45.8720 h1         1 DCA       0.051200
     61 H131       -27.7400   102.0910    44.1080 hc         1 DCA       0.036867
     62 H132       -27.4470   103.6600    43.3550 hc         1 DCA       0.036867
     63 H133       -26.2410   102.9650    44.4420 hc         1 DCA       0.036867
     64 H141       -29.9860   103.0940    44.8700 hc         1 DCA       0.036867
     65 H142       -30.0010   104.5110    45.9290 hc         1 DCA       0.036867
     66 H143       -29.5520   104.6860    44.2310 hc         1 DCA       0.036867
     67 H10        -28.3540   103.5200    47.5510 h1         1 DCA       0.110700
     68 HO1        -28.9360   101.3890    47.3950 ho         1 DCA       0.415000
     69 HN8        -26.7390   100.7450    46.4410 hn         1 DCA       0.316500
     70 H71        -24.4710   100.1270    46.4300 h1         1 DCA       0.057200
     71 H72        -24.0340   101.7130    47.0730 h1         1 DCA       0.057200
     72 H61        -24.9500   101.0650    49.3010 hc         1 DCA       0.064700
     73 H62        -25.3400    99.4580    48.6740 hc         1 DCA       0.064700
     74 HN4        -23.8070    97.9480    49.0480 hn         1 DCA       0.306500
     75 H31        -21.0070    98.3300    48.6220 h1         1 DCA       0.047200
     76 H32        -21.3450    98.4300    50.3430 h1         1 DCA       0.047200
     77 H21        -20.7940    96.0930    49.7020 hc         1 DCA       0.033700
     78 H22        -22.4700    96.1800    50.2570 hc         1 DCA       0.033700
     79 H23        -22.1140    96.0770    48.5250 hc         1 DCA       0.033700
@<TRIPOS>BOND
     1     1     2 ar  
     2     1     6 ar  
     3     2     3 ar  
     4     2    48 1   
     5     3     4 ar  
     6     4     5 ar  
     7     4    10 1   
     8     5     6 ar  
     9     5     8 1   
    10     6     7 1   
    11     7    49 1   
    12     7    50 1   
    13     8     9 2   
    14     9    10 1   
    15     9    51 1   
    16    10    11 1   
    17    11    12 1   
    18    11    21 1   
    19    11    52 1   
    20    12    13 1   
    21    12    14 1   
    22    12    53 1   
    23    13    54 1   
    24    14    15 1   
    25    14    20 1   
    26    14    55 1   
    27    15    16 1   
    28    16    17 1   
    29    16    18 1   
    30    16    19 1   
    31    20    21 1   
    32    20    22 1   
    33    20    56 1   
    34    22    23 1   
    35    22    57 1   
    36    22    58 1   
    37    23    24 1   
    38    24    25 1   
    39    24    26 1   
    40    24    27 1   
    41    27    28 1   
    42    28    29 1   
    43    28    30 1   
    44    28    31 1   
    45    31    33 1   
    46    32    33 1   
    47    32    34 1   
    48    32    35 1   
    49    32    36 1   
    50    33    59 1   
    51    33    60 1   
    52    34    61 1   
    53    34    62 1   
    54    34    63 1   
    55    35    64 1   
    56    35    65 1   
    57    35    66 1   
    58    36    37 1   
    59    36    38 1   
    60    36    67 1   
    61    37    68 1   
    62    38    39 2   
    63    38    40 1   
    64    40    41 1   
    65    40    69 1   
    66    41    42 1   
    67    41    70 1   
    68    41    71 1   
    69    42    43 1   
    70    42    72 1   
    71    42    73 1   
    72    43    44 2   
    73    43    45 1   
    74    45    46 1   
    75    45    74 1   
    76    46    47 1   
    77    46    75 1   
    78    46    76 1   
    79    47    77 1   
    80    47    78 1   
    81    47    79 1   
@<TRIPOS>SUBSTRUCTURE
     1 DCA         1 TEMP              0 ****  ****    0 ROOT
