@<TRIPOS>MOLECULE
DCB
   58    60     1     0     0
SMALL
bcc


@<TRIPOS>ATOM
      1 C1A          1.3750     0.5880     0.5190 c6         1 DCB       0.324900
      2 C2A          0.4730     1.8050     0.6060 c6         1 DCB       0.109600
      3 C3A         -0.9060     1.4000     1.1120 c6         1 DCB       0.125100
      4 C4A         -1.4600     0.2460     0.2760 c6         1 DCB       0.127100
      5 C5A         -0.4180    -0.8780     0.2150 c6         1 DCB       0.128100
      6 C6A         -0.8170    -2.0430    -0.6620 c3         1 DCB       0.144400
      7 O1A          2.5830     0.9890    -0.0640 os         1 DCB      -0.267900
      8 F2A          1.0270     2.7200     1.4910 f          1 DCB      -0.229300
      9 O3A         -1.8050     2.4690     1.0490 oh         1 DCB      -0.554800
     10 O4A         -2.6350    -0.2180     0.9030 os         1 DCB      -0.397600
     11 O5A          0.7850    -0.3470    -0.3190 os         1 DCB      -0.410600
     12 O6A          0.1980    -3.0130    -0.5820 oh         1 DCB      -0.594800
     13 C1B         -3.7420    -0.4150     0.0990 c6         1 DCB       0.320900
     14 C2B         -4.7090    -1.3360     0.8390 c6         1 DCB       0.088100
     15 C3B         -5.9660    -1.4950    -0.0060 c6         1 DCB       0.115100
     16 C4B         -6.5420    -0.1310    -0.3710 c6         1 DCB       0.119100
     17 C5B         -5.4540     0.7300    -1.0180 c6         1 DCB       0.155100
     18 C6B         -5.9390     2.1340    -1.3080 c3         1 DCB       0.150400
     19 O2B         -4.1610    -2.6150     1.0410 oh         1 DCB      -0.602800
     20 O3B         -6.9730    -2.2120     0.6680 oh         1 DCB      -0.599800
     21 O4B         -7.6060    -0.2540    -1.2810 oh         1 DCB      -0.593800
     22 O5B         -4.3490     0.8220    -0.1430 os         1 DCB      -0.402600
     23 O6B         -4.9250     2.8330    -1.9880 oh         1 DCB      -0.587800
     24 C1           3.6550     0.2030     0.0250 ca         1 DCB       0.251100
     25 C2           3.6150    -1.1450     0.3890 ca         1 DCB      -0.223000
     26 C3           4.7790    -1.8780     0.4980 ca         1 DCB       0.004000
     27 C4           6.0020    -1.2740     0.2500 ca         1 DCB      -0.228200
     28 C5           6.0800     0.0580    -0.1080 ca         1 DCB       0.021000
     29 C6           4.9090     0.7760    -0.2340 ca         1 DCB      -0.226200
     30 N4           7.2240    -2.0470     0.3640 no         1 DCB       0.324200
     31 N6           5.0230     2.1670    -0.6430 no         1 DCB       0.325200
     32 O41          7.1290    -3.2060     0.6910 o          1 DCB      -0.202000
     33 O42          8.2700    -1.4910     0.1280 o          1 DCB      -0.202000
     34 O61          5.9500     2.7990    -0.1960 o          1 DCB      -0.188000
     35 O62          4.2060     2.5960    -1.4180 o          1 DCB      -0.188000
     36 HC1A         1.5610     0.1710     1.5230 h2         1 DCB       0.053700
     37 HC2A         0.3980     2.2820    -0.3760 h1         1 DCB       0.107700
     38 HC3A        -0.7900     1.0320     2.1440 h1         1 DCB       0.048700
     39 HC4A        -1.6670     0.6050    -0.7410 h1         1 DCB       0.090700
     40 HC5A        -0.2410    -1.2500     1.2380 h1         1 DCB       0.058700
     41 H6A1        -1.7770    -2.4370    -0.3120 h1         1 DCB       0.041700
     42 HCA2        -0.9670    -1.6860    -1.6900 h1         1 DCB       0.041700
     43 HO3A        -1.5980     3.0900     1.7540 ho         1 DCB       0.419000
     44 HO6A        -0.0800    -3.7770    -1.0950 ho         1 DCB       0.415000
     45 HC1B        -3.4590    -0.8820    -0.8630 h2         1 DCB       0.029700
     46 HC2B        -4.9770    -0.8570     1.7920 h1         1 DCB       0.072700
     47 HC3B        -5.6870    -2.0050    -0.9420 h1         1 DCB       0.051700
     48 HC4B        -6.8680     0.3680     0.5550 h1         1 DCB       0.058700
     49 HC5B        -5.1500     0.2550    -1.9650 h1         1 DCB       0.058700
     50 H6B1        -6.2080     2.6210    -0.3600 h1         1 DCB       0.038700
     51 H6B2        -6.8540     2.0660    -1.9060 h1         1 DCB       0.038700
     52 HO2B        -3.5150    -2.5640     1.7520 ho         1 DCB       0.423000
     53 HO3B        -6.7000    -3.1310     0.7410 ho         1 DCB       0.427000
     54 HO4B        -8.2820    -0.8100    -0.8790 ho         1 DCB       0.428000
     55 HO6B        -5.2790     3.6870    -2.2510 ho         1 DCB       0.408000
     56 HC2          2.6760    -1.6480     0.5630 ha         1 DCB       0.179000
     57 HC3          4.7150    -2.9210     0.7700 ha         1 DCB       0.178000
     58 HC5          7.0310     0.5330    -0.3020 ha         1 DCB       0.200000
@<TRIPOS>BOND
     1     1     2 1   
     2     1     7 1   
     3     1    11 1   
     4     1    36 1   
     5     2     3 1   
     6     2     8 1   
     7     2    37 1   
     8     3     4 1   
     9     3     9 1   
    10     3    38 1   
    11     4     5 1   
    12     4    10 1   
    13     4    39 1   
    14     5     6 1   
    15     5    11 1   
    16     5    40 1   
    17     6    12 1   
    18     6    41 1   
    19     6    42 1   
    20     7    24 1   
    21     9    43 1   
    22    10    13 1   
    23    12    44 1   
    24    13    14 1   
    25    13    22 1   
    26    13    45 1   
    27    14    15 1   
    28    14    19 1   
    29    14    46 1   
    30    15    16 1   
    31    15    20 1   
    32    15    47 1   
    33    16    17 1   
    34    16    21 1   
    35    16    48 1   
    36    17    18 1   
    37    17    22 1   
    38    17    49 1   
    39    18    23 1   
    40    18    50 1   
    41    18    51 1   
    42    19    52 1   
    43    20    53 1   
    44    21    54 1   
    45    23    55 1   
    46    24    25 ar  
    47    24    29 ar  
    48    25    26 ar  
    49    25    56 1   
    50    26    27 ar  
    51    26    57 1   
    52    27    28 ar  
    53    27    30 1   
    54    28    29 ar  
    55    28    58 1   
    56    29    31 1   
    57    30    32 1   
    58    30    33 1   
    59    31    34 1   
    60    31    35 1   
@<TRIPOS>SUBSTRUCTURE
     1 DCB         1 TEMP              0 ****  ****    0 ROOT
