@<TRIPOS>MOLECULE
DCB
   58    60     1     0     0
SMALL
No Charge or Current Charge


@<TRIPOS>ATOM
      1 C1A          1.3960     0.6830     0.9980 c6         1 DCB       0.371300
      2 C2A          0.4440     1.8740     1.2790 c6         1 DCB       0.128300
      3 C3A         -0.9390     1.3670     1.7800 c6         1 DCB       0.148300
      4 C4A         -1.5310     0.3150     0.7840 c6         1 DCB       0.150300
      5 C5A         -0.4680    -0.8120     0.5400 c6         1 DCB       0.151300
      6 C6A         -0.8970    -1.9080    -0.4900 c3         1 DCB       0.167600
      7 O1A          2.6280     1.1610     0.4300 os         1 DCB      -0.291100
      8 F2A          1.0120     2.6940     2.2840 f          1 DCB      -0.248000
      9 O3A         -1.8460     2.4710     1.9920 oh         1 DCB      -0.677000
     10 O4A         -2.7950    -0.1950     1.2930 os         1 DCB      -0.444000
     11 O5A          0.7640    -0.2140     0.0610 os         1 DCB      -0.457000
     12 O6A          0.1490    -2.8590    -0.7750 oh         1 DCB      -0.717000
     13 C1B         -3.8040    -0.5100     0.3110 c6         1 DCB       0.367300
     14 C2B         -5.0120    -1.2240     1.0010 c6         1 DCB       0.111300
     15 C3B         -6.0910    -1.5240    -0.0770 c6         1 DCB       0.138300
     16 C4B         -6.5040    -0.2090    -0.8040 c6         1 DCB       0.142300
     17 C5B         -5.2280     0.4920    -1.3750 c6         1 DCB       0.178300
     18 C6B         -5.5480     1.8740    -2.0350 c3         1 DCB       0.173600
     19 O2B         -4.6240    -2.4400     1.6880 oh         1 DCB      -0.725000
     20 O3B         -7.2340    -2.1560     0.5250 oh         1 DCB      -0.662000
     21 O4B         -7.4700    -0.5050    -1.8300 oh         1 DCB      -0.716000
     22 O5B         -4.2640     0.7050    -0.3080 os         1 DCB      -0.449000
     23 O6B         -4.3770     2.5540    -2.5340 oh         1 DCB      -0.710000
     24 C1           3.7010     0.3210     0.1900 ca         1 DCB       0.251100
     25 C2           3.6940    -1.0380     0.5750 ca         1 DCB      -0.205000
     26 C3           4.8180    -1.8510     0.3570 ca         1 DCB       0.022000
     27 C4           5.9780    -1.3160    -0.2420 ca         1 DCB      -0.228200
     28 C5           5.9920     0.0430    -0.6250 ca         1 DCB       0.039000
     29 C6           4.8560     0.8550    -0.4160 ca         1 DCB      -0.226200
     30 N4           7.1790    -2.1790    -0.4700 no         1 DCB       0.704200
     31 N6           4.9000     2.2780    -0.8350 no         1 DCB       0.705200
     32 O41          7.1240    -3.3640    -0.1170 o          1 DCB      -0.392000
     33 O42          8.1740    -1.6680    -1.0010 o          1 DCB      -0.392000
     34 O61          5.9690     2.8830    -0.6830 o          1 DCB      -0.378000
     35 O62          3.9480     2.7240    -1.4880 o          1 DCB      -0.378000
     36 HC1A         1.6040     0.1570     1.9420 h2         1 DCB       0.053700
     37 HC2A         0.3290     2.4790     0.3690 h1         1 DCB       0.107700
     38 HC3A        -0.7730     0.8480     2.7360 h1         1 DCB       0.048700
     39 HC4A        -1.7120     0.8320    -0.1710 h1         1 DCB       0.090700
     40 HC5A        -0.2620    -1.3200     1.4940 h1         1 DCB       0.058700
     41 H6A1        -1.7670    -2.4390    -0.0810 h1         1 DCB       0.041700
     42 HCA2        -1.2160    -1.4060    -1.4140 h1         1 DCB       0.041700
     43 HO3A        -1.4470     3.0410     2.6900 ho         1 DCB       0.518000
     44 HO6A        -0.1810    -3.4500    -1.4920 ho         1 DCB       0.514000
     45 HC1B        -3.3880    -1.1720    -0.4600 h2         1 DCB       0.029700
     46 HC2B        -5.4400    -0.5120     1.7230 h1         1 DCB       0.072700
     47 HC3B        -5.6440    -2.2030    -0.8200 h1         1 DCB       0.051700
     48 HC4B        -6.9530     0.4660    -0.0590 h1         1 DCB       0.058700
     49 HC5B        -4.7710    -0.1520    -2.1400 h1         1 DCB       0.058700
     50 H6B1        -6.0580     2.4980    -1.2880 h1         1 DCB       0.038700
     51 H6B2        -6.2590     1.7050    -2.8560 h1         1 DCB       0.038700
     52 HO2B        -3.8840    -2.1920     2.2940 ho         1 DCB       0.522000
     53 HO3B        -6.8530    -2.7610     1.2050 ho         1 DCB       0.466000
     54 HO4B        -8.0680    -1.1830    -1.4280 ho         1 DCB       0.527000
     55 HO6B        -4.6750     3.4340    -2.8650 ho         1 DCB       0.507000
     56 HC2          2.8260    -1.4890     1.0440 ha         1 DCB       0.161000
     57 HC3          4.7780    -2.8970     0.6630 ha         1 DCB       0.160000
     58 HC5          6.8790     0.4720    -1.0940 ha         1 DCB       0.182000
@<TRIPOS>BOND
     1     1     2 1   
     2     1     7 1   
     3     1    11 1   
     4     1    36 1   
     5     2     3 1   
     6     2     8 1   
     7     2    37 1   
     8     3     4 1   
     9     3     9 1   
    10     3    38 1   
    11     4     5 1   
    12     4    10 1   
    13     4    39 1   
    14     5     6 1   
    15     5    11 1   
    16     5    40 1   
    17     6    12 1   
    18     6    41 1   
    19     6    42 1   
    20     7    24 1   
    21     9    43 1   
    22    10    13 1   
    23    12    44 1   
    24    13    14 1   
    25    13    22 1   
    26    13    45 1   
    27    14    15 1   
    28    14    19 1   
    29    14    46 1   
    30    15    16 1   
    31    15    20 1   
    32    15    47 1   
    33    16    17 1   
    34    16    21 1   
    35    16    48 1   
    36    17    18 1   
    37    17    22 1   
    38    17    49 1   
    39    18    23 1   
    40    18    50 1   
    41    18    51 1   
    42    19    52 1   
    43    20    53 1   
    44    21    54 1   
    45    23    55 1   
    46    24    25 ar  
    47    24    29 ar  
    48    25    26 ar  
    49    25    56 1   
    50    26    27 ar  
    51    26    57 1   
    52    27    28 ar  
    53    27    30 1   
    54    28    29 ar  
    55    28    58 1   
    56    29    31 1   
    57    30    32 1   
    58    30    33 1   
    59    31    34 1   
    60    31    35 1   
@<TRIPOS>SUBSTRUCTURE
     1 DCB         1 TEMP              0 ****  ****    0 ROOT
