@<TRIPOS>MOLECULE
DCD
   19    18     1     0     0
SMALL
No Charge or Current Charge


@<TRIPOS>ATOM
      1 C5          -1.2000    -0.7620     2.4960 c3         1 DCD      -0.114100
      2 C3          -1.0280     0.4280     1.5330 c3         1 DCD       0.078000
      3 N1          -0.5820     0.0200     0.1780 n          1 DCD      -0.309800
      4 C1           0.7670    -0.0000    -0.1650 cs         1 DCD       0.405000
      5 S2           2.0300     0.3290     0.8880 s          1 DCD      -0.533400
      6 S1           1.1690    -0.3810    -1.8830 sh         1 DCD      -0.210400
      7 C2          -1.6810    -0.3840    -0.7370 c3         1 DCD       0.078000
      8 C4          -2.2470     0.7930    -1.5540 c3         1 DCD      -0.114100
      9 H5C1        -1.5290    -0.4100     3.4800 hc         1 DCD       0.050367
     10 H5C2        -1.9480    -1.4680     2.1160 hc         1 DCD       0.050367
     11 H5C3        -0.2510    -1.2960     2.6210 hc         1 DCD       0.050367
     12 H3C1        -1.9890     0.9540     1.4490 h1         1 DCD       0.065450
     13 H3C2        -0.3180     1.1460     1.9630 h1         1 DCD       0.065450
     14 HS          -0.1210    -0.4570    -2.2680 hs         1 DCD       0.159800
     15 H2C1        -1.3510    -1.1900    -1.4040 h1         1 DCD       0.065450
     16 H2C2        -2.4990    -0.8080    -0.1400 h1         1 DCD       0.065450
     17 H4C1        -3.0590     0.4480    -2.2050 hc         1 DCD       0.050367
     18 H4C2        -2.6460     1.5690    -0.8910 hc         1 DCD       0.050367
     19 H4C3        -1.4700     1.2430    -2.1830 hc         1 DCD       0.050367
@<TRIPOS>BOND
     1     1     2 1   
     2     1     9 1   
     3     1    10 1   
     4     1    11 1   
     5     2     3 1   
     6     2    12 1   
     7     2    13 1   
     8     3     4 1   
     9     3     7 1   
    10     4     5 2   
    11     4     6 1   
    12     6    14 1   
    13     7     8 1   
    14     7    15 1   
    15     7    16 1   
    16     8    17 1   
    17     8    18 1   
    18     8    19 1   
@<TRIPOS>SUBSTRUCTURE
     1 DCD         1 TEMP              0 ****  ****    0 ROOT
