@<TRIPOS>MOLECULE
DCD
   19    18     1     0     0
SMALL
abcg2


@<TRIPOS>ATOM
      1 C5          -1.1290    -0.7620     2.4900 c3         1 DCD      -0.114100
      2 C3          -1.0690     0.4060     1.5230 c3         1 DCD       0.078000
      3 N1          -0.6470    -0.0010     0.1810 n          1 DCD      -0.309800
      4 C1           0.6370    -0.0250    -0.1370 cs         1 DCD       0.405000
      5 S2           1.8990     0.2970     0.9140 s          1 DCD      -0.533400
      6 S1           1.2010    -0.4290    -1.7530 sh         1 DCD      -0.210400
      7 C2          -1.7360    -0.3590    -0.7260 c3         1 DCD       0.078000
      8 C4          -2.2300     0.8250    -1.5400 c3         1 DCD      -0.114100
      9 H5C1        -1.4790    -0.4150     3.4620 hc         1 DCD       0.050367
     10 H5C2        -1.8170    -1.5350     2.1460 hc         1 DCD       0.050367
     11 H5C3        -0.1450    -1.2090     2.6230 hc         1 DCD       0.050367
     12 H3C1        -2.0510     0.8680     1.4200 h1         1 DCD       0.065450
     13 H3C2        -0.3880     1.1730     1.8860 h1         1 DCD       0.065450
     14 HS           0.0730    -0.4940    -2.4730 hs         1 DCD       0.159800
     15 H2C1        -1.4290    -1.1880    -1.3630 h1         1 DCD       0.065450
     16 H2C2        -2.5460    -0.7510    -0.1110 h1         1 DCD       0.065450
     17 H4C1        -3.0560     0.5130    -2.1790 hc         1 DCD       0.050367
     18 H4C2        -2.5930     1.6220    -0.8910 hc         1 DCD       0.050367
     19 H4C3        -1.4490     1.2380    -2.1770 hc         1 DCD       0.050367
@<TRIPOS>BOND
     1     1     2 1   
     2     1     9 1   
     3     1    10 1   
     4     1    11 1   
     5     2     3 1   
     6     2    12 1   
     7     2    13 1   
     8     3     4 1   
     9     3     7 1   
    10     4     5 2   
    11     4     6 1   
    12     6    14 1   
    13     7     8 1   
    14     7    15 1   
    15     7    16 1   
    16     8    17 1   
    17     8    18 1   
    18     8    19 1   
@<TRIPOS>SUBSTRUCTURE
     1 DCD         1 TEMP              0 ****  ****    0 ROOT
