@<TRIPOS>MOLECULE
DCE
    8     7     1     0     0
SMALL
No Charge or Current Charge


@<TRIPOS>ATOM
      1 Cl1         26.9060    41.0940    19.6950 cl         1 DCE      -0.261000
      2 C1          28.2900    40.0080    20.1710 c3         1 DCE       0.112100
      3 C2          28.3330    38.7170    19.3300 c3         1 DCE       0.112100
      4 Cl2         26.8340    37.7030    19.5500 cl         1 DCE      -0.261000
      5 H11         29.2190    40.5750    20.0340 h1         1 DCE       0.074700
      6 H12         28.1770    39.7640    21.2350 h1         1 DCE       0.074700
      7 H21         28.4210    38.9620    18.2640 h1         1 DCE       0.074700
      8 H22         29.1940    38.1050    19.6260 h1         1 DCE       0.074700
@<TRIPOS>BOND
     1     1     2 1   
     2     2     3 1   
     3     2     5 1   
     4     2     6 1   
     5     3     4 1   
     6     3     7 1   
     7     3     8 1   
@<TRIPOS>SUBSTRUCTURE
     1 DCE         1 TEMP              0 ****  ****    0 ROOT
