@<TRIPOS>MOLECULE
DCE
    8     7     1     0     0
SMALL
bcc


@<TRIPOS>ATOM
      1 CL1         26.9310    41.0590    19.6890 cl         1 DCE      -0.184400
      2 C1          28.2840    39.9860    20.1680 c3         1 DCE       0.035500
      3 C2          28.3280    38.7390    19.3310 c3         1 DCE       0.035500
      4 CL2         26.8600    37.7370    19.5610 cl         1 DCE      -0.184400
      5 H11         29.2090    40.5440    20.0280 h1         1 DCE       0.074700
      6 H12         28.1660    39.7580    21.2250 h1         1 DCE       0.074700
      7 H21         28.4100    38.9660    18.2710 h1         1 DCE       0.074700
      8 H22         29.1850    38.1370    19.6310 h1         1 DCE       0.074700
@<TRIPOS>BOND
     1     1     2 1   
     2     2     3 1   
     3     2     5 1   
     4     2     6 1   
     5     3     4 1   
     6     3     7 1   
     7     3     8 1   
@<TRIPOS>SUBSTRUCTURE
     1 DCE         1 TEMP              0 ****  ****    0 ROOT
