@<TRIPOS>MOLECULE
DCF
   35    37     1     0     0
SMALL
abcg2


@<TRIPOS>ATOM
      1 N1          72.5040    68.0620   101.7450 nc         1 DCF      -0.666000
      2 C2          72.4670    68.5710   102.9470 cd         1 DCF       0.411400
      3 N3          73.6830    69.0220   103.3380 na         1 DCF      -0.181500
      4 C9          73.7970    68.1880   101.3210 cc         1 DCF       0.196300
      5 C10         74.5580    68.7900   102.2990 cd         1 DCF       0.076400
      6 N4          75.8770    69.1140   102.4570 nf         1 DCF      -0.674100
      7 C5          76.7490    68.9320   101.5310 c2         1 DCF       0.680100
      8 N6          76.5880    68.5420   100.2570 nu         1 DCF      -0.925400
      9 C7          75.3750    68.6360    99.4700 c3         1 DCF       0.183800
     10 C8          74.2400    67.7470    99.9740 c3         1 DCF       0.152000
     11 O8          74.6170    66.3870   100.0250 oh         1 DCF      -0.633000
     12 C2S         73.5550    71.1780   104.5810 c5         1 DCF      -0.124400
     13 C3S         72.2210    71.1120   105.3040 c5         1 DCF       0.137300
     14 O3S         71.9040    72.3450   105.8910 oh         1 DCF      -0.707000
     15 C4S         72.5010    69.9950   106.3170 c5         1 DCF       0.124300
     16 O4S         73.3680    69.0890   105.6430 os         1 DCF      -0.436000
     17 C1S         74.0130    69.7210   104.5680 c5         1 DCF       0.312300
     18 H2          71.6010    68.6030   103.5890 h5         1 DCF       0.074100
     19 H5          77.7890    69.0930   101.8020 h5         1 DCF       0.026800
     20 HN6         77.4410    68.4260    99.7340 hn         1 DCF       0.479000
     21 H71         75.0220    69.6700    99.4170 h1         1 DCF       0.045700
     22 H72         75.6490    68.3480    98.4550 h1         1 DCF       0.045700
     23 H8          73.3960    67.8950    99.2850 h1         1 DCF       0.053700
     24 HO8         74.8830    66.1140    99.1390 ho         1 DCF       0.432000
     25 H2S1        73.5030    71.6120   103.5830 hc         1 DCF       0.079700
     26 H2S2        74.2530    71.7680   105.1800 hc         1 DCF       0.079700
     27 H3S         71.4320    70.7970   104.6090 h1         1 DCF       0.062700
     28 HO3         70.9910    72.3150   106.1960 ho         1 DCF       0.509000
     29 HO5         69.7320    68.3560   106.1590 ho         1 DCF       0.509000
     30 H4S         73.0240    70.4400   107.1770 h1         1 DCF       0.061700
     31 H1S         75.0960    69.6410   104.6690 h2         1 DCF       0.112700
     32 C5S         71.2950    69.2660   106.8620 c3         1 DCF       0.162600
     33 H5S1        70.6990    70.0020   107.4180 h1         1 DCF       0.029700
     34 O5S         70.5670    68.6810   105.8110 oh         1 DCF      -0.719000
     35 H5S2        71.6280    68.5160   107.5920 h1         1 DCF       0.029700
@<TRIPOS>BOND
     1     1     2 2   
     2     1     4 1   
     3     2     3 1   
     4     2    18 1   
     5     3     5 1   
     6     3    17 1   
     7     4     5 2   
     8     4    10 1   
     9     5     6 1   
    10     6     7 2   
    11     7     8 1   
    12     7    19 1   
    13     8     9 1   
    14     8    20 1   
    15     9    10 1   
    16     9    21 1   
    17     9    22 1   
    18    10    11 1   
    19    10    23 1   
    20    11    24 1   
    21    12    13 1   
    22    12    17 1   
    23    12    25 1   
    24    12    26 1   
    25    13    14 1   
    26    13    15 1   
    27    13    27 1   
    28    14    28 1   
    29    15    16 1   
    30    15    30 1   
    31    15    32 1   
    32    16    17 1   
    33    17    31 1   
    34    29    34 1   
    35    32    33 1   
    36    32    34 1   
    37    32    35 1   
@<TRIPOS>SUBSTRUCTURE
     1 DCF         1 TEMP              0 ****  ****    0 ROOT
