@<TRIPOS>MOLECULE
DCF
   35    37     1     0     0
SMALL
No Charge or Current Charge


@<TRIPOS>ATOM
      1 N1          72.5470    67.7070   101.8490 nc         1 DCF      -0.666000
      2 C2          72.5150    68.1680   103.0930 cd         1 DCF       0.411400
      3 N3          73.7240    68.7560   103.4330 na         1 DCF      -0.181500
      4 C9          73.8030    67.9960   101.3820 cc         1 DCF       0.196300
      5 C10         74.5570    68.6550   102.3340 cd         1 DCF       0.076400
      6 N4          75.8750    69.1030   102.2980 nf         1 DCF      -0.674100
      7 C5          76.6760    69.1730   101.2640 c2         1 DCF       0.680100
      8 N6          76.4000    68.7980    99.9580 nu         1 DCF      -0.925400
      9 C7          75.0510    68.7650    99.3580 c3         1 DCF       0.183800
     10 C8          74.2050    67.6290    99.9720 c3         1 DCF       0.152000
     11 O8          74.9810    66.4170    99.9450 oh         1 DCF      -0.633000
     12 C2S         73.9070    70.9230   104.7530 c5         1 DCF      -0.124400
     13 C3S         72.4390    71.0720   105.2070 c5         1 DCF       0.137300
     14 O3S         72.1680    72.3930   105.6890 oh         1 DCF      -0.707000
     15 C4S         72.4390    69.9830   106.3220 c5         1 DCF       0.124300
     16 O4S         73.1620    68.8710   105.7380 os         1 DCF      -0.436000
     17 C1S         74.0590    69.3750   104.7150 c5         1 DCF       0.312300
     18 H2          71.6780    68.1160   103.7800 h5         1 DCF       0.074100
     19 H5          77.7050    69.5240   101.3730 h5         1 DCF       0.026800
     20 HN6         77.1730    68.9750    99.3160 hn         1 DCF       0.479000
     21 H71         74.5400    69.7270    99.5030 h1         1 DCF       0.045700
     22 H72         75.1320    68.5950    98.2750 h1         1 DCF       0.045700
     23 H8          73.2930    67.5120    99.3700 h1         1 DCF       0.053700
     24 HO8         75.9020    66.7350   100.0810 ho         1 DCF       0.432000
     25 H2S1        74.0990    71.3900   103.7810 hc         1 DCF       0.079700
     26 H2S2        74.6050    71.3650   105.4730 hc         1 DCF       0.079700
     27 H3S         71.7510    70.8040   104.3920 h1         1 DCF       0.062700
     28 HO3         71.1910    72.4640   105.8030 ho         1 DCF       0.509000
     29 HO5         69.3220    68.8430   106.1890 ho         1 DCF       0.509000
     30 H4S         73.0190    70.3360   107.1860 h1         1 DCF       0.061700
     31 H1S         75.0940    69.0790   104.9310 h2         1 DCF       0.112700
     32 C5S         71.0470    69.5280   106.8470 c3         1 DCF       0.162600
     33 H5S1        70.6180    70.3440   107.4430 h1         1 DCF       0.029700
     34 O5S         70.1510    69.1790   105.7740 oh         1 DCF      -0.719000
     35 H5S2        71.1900    68.6720   107.5200 h1         1 DCF       0.029700
@<TRIPOS>BOND
     1     1     2 2   
     2     1     4 1   
     3     2     3 1   
     4     2    18 1   
     5     3     5 1   
     6     3    17 1   
     7     4     5 2   
     8     4    10 1   
     9     5     6 1   
    10     6     7 2   
    11     7     8 1   
    12     7    19 1   
    13     8     9 1   
    14     8    20 1   
    15     9    10 1   
    16     9    21 1   
    17     9    22 1   
    18    10    11 1   
    19    10    23 1   
    20    11    24 1   
    21    12    13 1   
    22    12    17 1   
    23    12    25 1   
    24    12    26 1   
    25    13    14 1   
    26    13    15 1   
    27    13    27 1   
    28    14    28 1   
    29    15    16 1   
    30    15    30 1   
    31    15    32 1   
    32    16    17 1   
    33    17    31 1   
    34    29    34 1   
    35    32    33 1   
    36    32    34 1   
    37    32    35 1   
@<TRIPOS>SUBSTRUCTURE
     1 DCF         1 TEMP              0 ****  ****    0 ROOT
