@<TRIPOS>MOLECULE
DCH
   63    66     1     0     0
SMALL
bcc


@<TRIPOS>ATOM
      1 CZ          -0.0150     5.9480     3.2030 c3         1 DCH       0.448000
      2 NZ1         -0.8340     4.7560     3.0230 n8         1 DCH      -0.904800
      3 NZ2          0.1210     6.5730     1.9110 n8         1 DCH      -0.904800
      4 C11          1.2710     5.5560     3.9140 ca         1 DCH      -0.127300
      5 C12          2.4830     5.4800     3.2840 ca         1 DCH      -0.105000
      6 C13          3.6560     5.1000     3.9810 ca         1 DCH      -0.032000
      7 C14          4.9050     5.0000     3.3310 ca         1 DCH      -0.102000
      8 C15          6.0320     4.6020     4.0020 ca         1 DCH      -0.078300
      9 C16          5.9400     4.3150     5.3840 ca         1 DCH      -0.120000
     10 C17          4.7480     4.4140     6.0480 ca         1 DCH      -0.116000
     11 C18          3.5730     4.7980     5.3620 ca         1 DCH      -0.035000
     12 C19          2.3150     4.8940     6.0020 ca         1 DCH      -0.108000
     13 C1A          1.2030     5.2610     5.2990 ca         1 DCH      -0.128000
     14 CA1          7.3280     4.3600     3.2810 c3         1 DCH      -0.017100
     15 CA2          7.4950     2.8490     2.9750 c3         1 DCH      -0.069400
     16 CA3          8.7890     2.5390     2.2480 c          1 DCH       0.643100
     17 OA3          8.8890     1.8100     1.2940 o          1 DCH      -0.524000
     18 OA4          9.8190     3.1390     2.8210 os         1 DCH      -0.433900
     19 CA5         11.1340     2.8930     2.2950 c3         1 DCH       0.144400
     20 CA6         12.1100     3.7150     3.1010 c3         1 DCH      -0.098100
     21 C21          6.2760     2.3280     2.2650 ca         1 DCH      -0.082300
     22 C22          5.3350     1.5910     2.9730 ca         1 DCH      -0.099000
     23 C23          4.1060     1.2720     2.4170 ca         1 DCH      -0.146500
     24 C24          3.8020     1.6860     1.1280 ca         1 DCH       0.112100
     25 C25          4.7500     2.3880     0.3910 ca         1 DCH      -0.146500
     26 C26          5.9730     2.7060     0.9600 ca         1 DCH      -0.099000
     27 OB           2.5750     1.4050     0.6010 os         1 DCH      -0.333900
     28 C31          1.5950     2.4170     0.8150 c5         1 DCH       0.108100
     29 C32          0.1870     1.8230     0.7580 c5         1 DCH       0.139800
     30 N33         -0.6840     2.9450     0.4680 n7         1 DCH      -0.781200
     31 C34          0.0510     3.7290    -0.5250 c5         1 DCH       0.137800
     32 C35          1.5610     3.5160    -0.2600 c5         1 DCH      -0.138400
     33 HZ          -0.5100     6.6860     3.8510 h2         1 DCH       0.039700
     34 HZ11        -1.7950     5.0340     2.8580 hn         1 DCH       0.356550
     35 HZ12        -0.8390     4.1900     3.8620 hn         1 DCH       0.356550
     36 HZ21         0.6480     7.4340     1.9820 hn         1 DCH       0.356550
     37 HZ22         0.6240     5.9630     1.2780 hn         1 DCH       0.356550
     38 H12          2.5790     5.7190     2.2300 ha         1 DCH       0.127000
     39 H14          4.9560     5.2130     2.2690 ha         1 DCH       0.134000
     40 H16          6.8310     4.0080     5.9200 ha         1 DCH       0.132000
     41 H17          4.6920     4.1940     7.1070 ha         1 DCH       0.133000
     42 H19          2.2430     4.6780     7.0620 ha         1 DCH       0.134000
     43 H1A          0.2500     5.3390     5.8110 ha         1 DCH       0.127000
     44 HA11         8.1660     4.7060     3.8870 hc         1 DCH       0.061200
     45 HA12         7.3490     4.9260     2.3470 hc         1 DCH       0.061200
     46 HA2          7.5770     2.3330     3.9400 hc         1 DCH       0.079700
     47 HA51        11.3630     1.8290     2.3710 h1         1 DCH       0.049700
     48 HA52        11.1670     3.1710     1.2400 h1         1 DCH       0.049700
     49 HA61        13.1210     3.5230     2.7420 hc         1 DCH       0.047033
     50 HA62        11.9170     4.7830     2.9990 hc         1 DCH       0.047033
     51 HA63        12.0780     3.4540     4.1590 hc         1 DCH       0.047033
     52 H22          5.5490     1.2910     3.9920 ha         1 DCH       0.132000
     53 H23          3.3740     0.7160     2.9910 ha         1 DCH       0.142000
     54 H25          4.5260     2.6980    -0.6230 ha         1 DCH       0.142000
     55 H26          6.6790     3.2880     0.3800 ha         1 DCH       0.132000
     56 H31          1.7530     2.8660     1.8030 h1         1 DCH       0.047700
     57 H321         0.1340     1.0810    -0.0480 h1         1 DCH       0.062700
     58 H322        -0.1030     1.3290     1.6870 h1         1 DCH       0.062700
     59 H33         -0.7590     3.5070     1.3170 hn         1 DCH       0.377800
     60 H341        -0.2500     4.7770    -0.4710 h1         1 DCH       0.052700
     61 H342        -0.2010     3.3790    -1.5290 h1         1 DCH       0.052700
     62 H351         2.0770     3.1830    -1.1630 hc         1 DCH       0.048200
     63 H352         2.0610     4.4280     0.0740 hc         1 DCH       0.048200
@<TRIPOS>BOND
     1     1     2 1   
     2     1     3 1   
     3     1     4 1   
     4     1    33 1   
     5     2    34 1   
     6     2    35 1   
     7     3    36 1   
     8     3    37 1   
     9     4     5 ar  
    10     4    13 ar  
    11     5     6 ar  
    12     5    38 1   
    13     6     7 ar  
    14     6    11 ar  
    15     7     8 ar  
    16     7    39 1   
    17     8     9 ar  
    18     8    14 1   
    19     9    10 ar  
    20     9    40 1   
    21    10    11 ar  
    22    10    41 1   
    23    11    12 ar  
    24    12    13 ar  
    25    12    42 1   
    26    13    43 1   
    27    14    15 1   
    28    14    44 1   
    29    14    45 1   
    30    15    16 1   
    31    15    21 1   
    32    15    46 1   
    33    16    17 2   
    34    16    18 1   
    35    18    19 1   
    36    19    20 1   
    37    19    47 1   
    38    19    48 1   
    39    20    49 1   
    40    20    50 1   
    41    20    51 1   
    42    21    22 ar  
    43    21    26 ar  
    44    22    23 ar  
    45    22    52 1   
    46    23    24 ar  
    47    23    53 1   
    48    24    25 ar  
    49    24    27 1   
    50    25    26 ar  
    51    25    54 1   
    52    26    55 1   
    53    27    28 1   
    54    28    29 1   
    55    28    32 1   
    56    28    56 1   
    57    29    30 1   
    58    29    57 1   
    59    29    58 1   
    60    30    31 1   
    61    30    59 1   
    62    31    32 1   
    63    31    60 1   
    64    31    61 1   
    65    32    62 1   
    66    32    63 1   
@<TRIPOS>SUBSTRUCTURE
     1 DCH         1 TEMP              0 ****  ****    0 ROOT
