@<TRIPOS>MOLECULE
DCH
   63    66     1     0     0
SMALL
No Charge or Current Charge


@<TRIPOS>ATOM
      1 CZ          -0.3500     5.3410     3.6330 c3         1 DCH       0.448000
      2 NZ1         -0.5890     4.0680     3.0740 n8         1 DCH      -1.015200
      3 NZ2         -0.5150     6.0580     2.4370 n8         1 DCH      -1.015200
      4 C11          1.0580     5.4740     4.2090 ca         1 DCH      -0.127300
      5 C12          2.2160     5.3070     3.4140 ca         1 DCH      -0.087000
      6 C13          3.5000     5.4360     3.9800 ca         1 DCH      -0.032000
      7 C14          4.6490     5.2660     3.1850 ca         1 DCH      -0.084000
      8 C15          5.9360     5.3510     3.7560 ca         1 DCH      -0.078300
      9 C16          6.0630     5.6380     5.1290 ca         1 DCH      -0.102000
     10 C17          4.9190     5.8310     5.9230 ca         1 DCH      -0.098000
     11 C18          3.6370     5.7240     5.3540 ca         1 DCH      -0.035000
     12 C19          2.4900     5.8950     6.1490 ca         1 DCH      -0.090000
     13 C1A          1.2110     5.7720     5.5790 ca         1 DCH      -0.110000
     14 CA1          7.1810     5.0920     2.9080 c3         1 DCH      -0.017100
     15 CA2          7.4910     3.5770     2.7770 c3         1 DCH      -0.069400
     16 CA3          8.8470     3.3280     2.0830 c          1 DCH       0.594100
     17 OA3          9.1160     3.6840     0.9430 o          1 DCH      -0.475000
     18 OA4          9.7260     2.6700     2.9060 os         1 DCH      -0.457100
     19 CA5         11.0360     2.3700     2.3950 c3         1 DCH       0.167600
     20 CA6         11.8070     1.6380     3.5050 c3         1 DCH      -0.098100
     21 C21          6.3330     2.8310     2.1050 ca         1 DCH      -0.082300
     22 C22          5.4790     2.0250     2.8870 ca         1 DCH      -0.081000
     23 C23          4.3240     1.4590     2.3240 ca         1 DCH      -0.128500
     24 C24          4.0140     1.6910     0.9740 ca         1 DCH       0.112100
     25 C25          4.8850     2.4460     0.1730 ca         1 DCH      -0.128500
     26 C26          6.0330     3.0260     0.7390 ca         1 DCH      -0.081000
     27 OB           2.8400     1.2020     0.4480 os         1 DCH      -0.357100
     28 C31          1.7850     2.1460     0.7850 c5         1 DCH       0.131300
     29 C32          0.4140     1.4590     0.5800 c5         1 DCH       0.139800
     30 N33         -0.4880     2.6220     0.4220 n7         1 DCH      -0.836400
     31 C34          0.2100     3.4520    -0.5830 c5         1 DCH       0.137800
     32 C35          1.7330     3.2730    -0.2940 c5         1 DCH      -0.138400
     33 HZ          -1.1190     5.6070     4.3730 h2         1 DCH       0.039700
     34 HZ11        -1.6030     4.0160     2.9550 hn         1 DCH       0.411750
     35 HZ12        -0.4050     3.3890     3.8160 hn         1 DCH       0.411750
     36 HZ21        -0.1340     6.9910     2.6040 hn         1 DCH       0.411750
     37 HZ22         0.1770     5.6450     1.8160 hn         1 DCH       0.411750
     38 H12          2.1190     5.0700     2.3580 ha         1 DCH       0.109000
     39 H14          4.5410     5.0420     2.1270 ha         1 DCH       0.116000
     40 H16          7.0480     5.7030     5.5850 ha         1 DCH       0.114000
     41 H17          5.0320     6.0500     6.9820 ha         1 DCH       0.115000
     42 H19          2.5860     6.1200     7.2090 ha         1 DCH       0.116000
     43 H1A          0.3330     5.9040     6.2080 ha         1 DCH       0.109000
     44 HA11         8.0490     5.5970     3.3510 hc         1 DCH       0.061200
     45 HA12         7.0550     5.5290     1.9100 hc         1 DCH       0.061200
     46 HA2          7.6010     3.1910     3.7980 hc         1 DCH       0.079700
     47 HA51        10.9720     1.7260     1.5070 h1         1 DCH       0.049700
     48 HA52        11.5710     3.2890     2.1220 h1         1 DCH       0.049700
     49 HA61        12.8170     1.3860     3.1620 hc         1 DCH       0.047033
     50 HA62        11.8930     2.2700     4.3960 hc         1 DCH       0.047033
     51 HA63        11.2950     0.7080     3.7820 hc         1 DCH       0.047033
     52 H22          5.6830     1.8750     3.9450 ha         1 DCH       0.114000
     53 H23          3.6520     0.8680     2.9410 ha         1 DCH       0.124000
     54 H25          4.6520     2.6170    -0.8740 ha         1 DCH       0.124000
     55 H26          6.6630     3.6580     0.1180 ha         1 DCH       0.114000
     56 H31          1.8880     2.5320     1.8090 h1         1 DCH       0.047700
     57 H321         0.4100     0.8250    -0.3190 h1         1 DCH       0.062700
     58 H322         0.1340     0.8370     1.4420 h1         1 DCH       0.062700
     59 H33         -0.4790     3.1470     1.3170 hn         1 DCH       0.433000
     60 H341        -0.1030     4.5040    -0.5260 h1         1 DCH       0.052700
     61 H342        -0.0250     3.0930    -1.5970 h1         1 DCH       0.052700
     62 H351         2.2620     2.9960    -1.2130 hc         1 DCH       0.048200
     63 H352         2.1880     4.1980     0.0740 hc         1 DCH       0.048200
@<TRIPOS>BOND
     1     1     2 1   
     2     1     3 1   
     3     1     4 1   
     4     1    33 1   
     5     2    34 1   
     6     2    35 1   
     7     3    36 1   
     8     3    37 1   
     9     4     5 ar  
    10     4    13 ar  
    11     5     6 ar  
    12     5    38 1   
    13     6     7 ar  
    14     6    11 ar  
    15     7     8 ar  
    16     7    39 1   
    17     8     9 ar  
    18     8    14 1   
    19     9    10 ar  
    20     9    40 1   
    21    10    11 ar  
    22    10    41 1   
    23    11    12 ar  
    24    12    13 ar  
    25    12    42 1   
    26    13    43 1   
    27    14    15 1   
    28    14    44 1   
    29    14    45 1   
    30    15    16 1   
    31    15    21 1   
    32    15    46 1   
    33    16    17 2   
    34    16    18 1   
    35    18    19 1   
    36    19    20 1   
    37    19    47 1   
    38    19    48 1   
    39    20    49 1   
    40    20    50 1   
    41    20    51 1   
    42    21    22 ar  
    43    21    26 ar  
    44    22    23 ar  
    45    22    52 1   
    46    23    24 ar  
    47    23    53 1   
    48    24    25 ar  
    49    24    27 1   
    50    25    26 ar  
    51    25    54 1   
    52    26    55 1   
    53    27    28 1   
    54    28    29 1   
    55    28    32 1   
    56    28    56 1   
    57    29    30 1   
    58    29    57 1   
    59    29    58 1   
    60    30    31 1   
    61    30    59 1   
    62    31    32 1   
    63    31    60 1   
    64    31    61 1   
    65    32    62 1   
    66    32    63 1   
@<TRIPOS>SUBSTRUCTURE
     1 DCH         1 TEMP              0 ****  ****    0 ROOT
