@<TRIPOS>MOLECULE
DCI
   19    18     1     0     0
SMALL
No Charge or Current Charge


@<TRIPOS>ATOM
      1 N            0.1900     0.2820    -2.4970 n8         1 DCI      -0.995200
      2 CA           0.7290    -0.2830    -1.2440 c3         1 DCI       0.151800
      3 CB          -0.0470     0.1900     0.0150 c3         1 DCI      -0.061700
      4 CG1          0.6920    -0.2690     1.3040 c3         1 DCI      -0.074400
      5 CG2         -1.5300    -0.2720    -0.0050 c3         1 DCI      -0.087100
      6 CD1          0.1180     0.2960     2.6220 c3         1 DCI      -0.086100
      7 HN1         -0.7720    -0.0530    -2.6220 hn         1 DCI       0.390500
      8 HN2          0.6950    -0.1290    -3.2920 hn         1 DCI       0.390500
      9 HA1          1.7820     0.0210    -1.1620 h1         1 DCI       0.024700
     10 HA2          0.6940    -1.3800    -1.3080 h1         1 DCI       0.024700
     11 HB          -0.0410     1.2870     0.0090 hc         1 DCI       0.061700
     12 HG11         1.7430     0.0380     1.2360 hc         1 DCI       0.035200
     13 HG12         0.6910    -1.3650     1.3560 hc         1 DCI       0.035200
     14 HG21        -1.5980    -1.3650     0.0370 hc         1 DCI       0.031700
     15 HG22        -2.0850     0.1400     0.8450 hc         1 DCI       0.031700
     16 HG23        -2.0400     0.0680    -0.9140 hc         1 DCI       0.031700
     17 HD1          0.7630     0.0180     3.4640 hc         1 DCI       0.031700
     18 HD2          0.0600     1.3900     2.5840 hc         1 DCI       0.031700
     19 HD3         -0.8830    -0.1010     2.8230 hc         1 DCI       0.031700
@<TRIPOS>BOND
     1     1     2 1   
     2     1     7 1   
     3     1     8 1   
     4     2     3 1   
     5     2     9 1   
     6     2    10 1   
     7     3     4 1   
     8     3     5 1   
     9     3    11 1   
    10     4     6 1   
    11     4    12 1   
    12     4    13 1   
    13     5    14 1   
    14     5    15 1   
    15     5    16 1   
    16     6    17 1   
    17     6    18 1   
    18     6    19 1   
@<TRIPOS>SUBSTRUCTURE
     1 DCI         1 TEMP              0 ****  ****    0 ROOT
