@<TRIPOS>MOLECULE
DCI
   19    18     1     0     0
SMALL
bcc


@<TRIPOS>ATOM
      1 N            0.1360     0.2490    -2.4540 n8         1 DCI      -0.884800
      2 CA           0.6930    -0.2890    -1.2210 c3         1 DCI       0.151800
      3 CB          -0.0540     0.2000     0.0190 c3         1 DCI      -0.061700
      4 CG1          0.6780    -0.2700     1.2770 c3         1 DCI      -0.074400
      5 CG2         -1.5100    -0.2530     0.0040 c3         1 DCI      -0.087100
      6 CD1          0.1250     0.2900     2.5810 c3         1 DCI      -0.086100
      7 HN1         -0.7460    -0.2040    -2.6590 hn         1 DCI       0.335300
      8 HN2          0.7430     0.0020    -3.2260 hn         1 DCI       0.335300
      9 HA1          1.7330     0.0430    -1.1510 h1         1 DCI       0.024700
     10 HA2          0.7220    -1.3890    -1.1990 h1         1 DCI       0.024700
     11 HB          -0.0300     1.2970     0.0020 hc         1 DCI       0.061700
     12 HG11         1.7330     0.0110     1.1910 hc         1 DCI       0.035200
     13 HG12         0.6620    -1.3650     1.3150 hc         1 DCI       0.035200
     14 HG21        -1.5780    -1.3440     0.0020 hc         1 DCI       0.031700
     15 HG22        -2.0580     0.1080     0.8750 hc         1 DCI       0.031700
     16 HG23        -2.0430     0.1150    -0.8750 hc         1 DCI       0.031700
     17 HD1          0.7420    -0.0120     3.4270 hc         1 DCI       0.031700
     18 HD2          0.1030     1.3820     2.5630 hc         1 DCI       0.031700
     19 HD3         -0.8890    -0.0570     2.7800 hc         1 DCI       0.031700
@<TRIPOS>BOND
     1     1     2 1   
     2     1     7 1   
     3     1     8 1   
     4     2     3 1   
     5     2     9 1   
     6     2    10 1   
     7     3     4 1   
     8     3     5 1   
     9     3    11 1   
    10     4     6 1   
    11     4    12 1   
    12     4    13 1   
    13     5    14 1   
    14     5    15 1   
    15     5    16 1   
    16     6    17 1   
    17     6    18 1   
    18     6    19 1   
@<TRIPOS>SUBSTRUCTURE
     1 DCI         1 TEMP              0 ****  ****    0 ROOT
