@<TRIPOS>MOLECULE
DCJ
   40    41     1     0     0
SMALL
No Charge or Current Charge


@<TRIPOS>ATOM
      1 O4           3.8700    -3.2020    -1.2640 o          1 DCJ      -0.701750
      2 C7           4.3980    -2.1180    -1.0380 c          1 DCJ       0.612000
      3 O3           5.5810    -1.9120    -1.2970 o          1 DCJ      -0.701750
      4 C6           3.5450    -0.9820    -0.4100 ca         1 DCJ       0.283000
      5 C5           2.1820    -1.2110    -0.1080 ca         1 DCJ      -0.152500
      6 N1           4.1220     0.2310    -0.1560 nb         1 DCJ      -0.559000
      7 C2           3.3830     1.2400     0.3950 ca         1 DCJ       0.283000
      8 C1           4.0560     2.6110     0.6800 c          1 DCJ       0.612000
      9 O2           5.2430     2.7700     0.4080 o          1 DCJ      -0.701750
     10 O1           3.3840     3.5120     1.1720 o          1 DCJ      -0.701750
     11 C3           2.0180     1.0490     0.7100 ca         1 DCJ      -0.152500
     12 C4           1.3960    -0.1900     0.4590 ca         1 DCJ      -0.099200
     13 N2           0.0440    -0.3980     0.7620 na         1 DCJ       0.314000
     14 C8          -0.9400     0.5380     0.6140 cc         1 DCJ      -0.163000
     15 N3          -0.3840    -1.5610     1.3210 nc         1 DCJ      -0.140800
     16 N4          -1.6690    -1.3970     1.5160 nd         1 DCJ      -0.384000
     17 C9          -2.0360    -0.1300     1.0920 cd         1 DCJ       0.040300
     18 C10         -3.4590     0.3700     1.1790 c3         1 DCJ       0.119300
     19 N5          -4.3290     0.1630    -0.0730 n4         1 DCJ      -0.499000
     20 C13         -3.6980     0.8970    -1.2680 c3         1 DCJ       0.082400
     21 C14         -4.4150    -1.3400    -0.3850 c3         1 DCJ       0.082400
     22 C11         -5.7390     0.7290     0.2170 c3         1 DCJ       0.092600
     23 C12         -6.8240     0.6720    -0.8900 c3         1 DCJ       0.148600
     24 O5          -7.3460    -0.6600    -1.0300 oh         1 DCJ      -0.660000
     25 H5           1.7410    -2.1820    -0.3220 ha         1 DCJ       0.135500
     26 H3           1.4520     1.8630     1.1560 ha         1 DCJ       0.135500
     27 H8          -0.7960     1.5250     0.1990 h4         1 DCJ       0.185000
     28 H101        -3.9610    -0.1300     2.0100 hx         1 DCJ       0.085700
     29 H102        -3.4480     1.4400     1.3970 hx         1 DCJ       0.085700
     30 H131        -2.6970     0.5000    -1.4460 hx         1 DCJ       0.094700
     31 H132        -4.3130     0.7390    -2.1560 hx         1 DCJ       0.094700
     32 H133        -3.6370     1.9640    -1.0450 hx         1 DCJ       0.094700
     33 H141        -4.8750    -1.8560     0.4600 hx         1 DCJ       0.094700
     34 H142        -5.0210    -1.4890    -1.2810 hx         1 DCJ       0.094700
     35 H143        -3.4100    -1.7320    -0.5520 hx         1 DCJ       0.094700
     36 H111        -6.1280     0.2170     1.0990 hx         1 DCJ       0.094700
     37 H112        -5.6020     1.7790     0.4830 hx         1 DCJ       0.094700
     38 H121        -7.6330     1.3580    -0.6080 h1         1 DCJ       0.045700
     39 H122        -6.4050     1.0320    -1.8390 h1         1 DCJ       0.045700
     40 HO5         -8.0560    -0.6230    -1.7100 ho         1 DCJ       0.469000
@<TRIPOS>BOND
     1     1     2 1   
     2     2     3 1   
     3     2     4 1   
     4     4     5 ar  
     5     4     6 ar  
     6     5    12 ar  
     7     5    25 1   
     8     6     7 ar  
     9     7     8 1   
    10     7    11 ar  
    11     8     9 1   
    12     8    10 1   
    13    11    12 ar  
    14    11    26 1   
    15    12    13 1   
    16    13    14 1   
    17    13    15 1   
    18    14    17 2   
    19    14    27 1   
    20    15    16 2   
    21    16    17 1   
    22    17    18 1   
    23    18    19 1   
    24    18    28 1   
    25    18    29 1   
    26    19    20 1   
    27    19    21 1   
    28    19    22 1   
    29    20    30 1   
    30    20    31 1   
    31    20    32 1   
    32    21    33 1   
    33    21    34 1   
    34    21    35 1   
    35    22    23 1   
    36    22    36 1   
    37    22    37 1   
    38    23    24 1   
    39    23    38 1   
    40    23    39 1   
    41    24    40 1   
@<TRIPOS>SUBSTRUCTURE
     1 DCJ         1 TEMP              0 ****  ****    0 ROOT
