@<TRIPOS>MOLECULE
DCJ
   40    41     1     0     0
SMALL
bcc


@<TRIPOS>ATOM
      1 O4           3.9430    -3.3020    -0.6350 o          1 DCJ      -0.807050
      2 C7           4.4850    -2.1820    -0.5810 c          1 DCJ       0.822600
      3 O3           5.6720    -1.9020    -0.8040 o          1 DCJ      -0.807050
      4 C6           3.5650    -1.0180    -0.1910 ca         1 DCJ       0.348300
      5 C5           2.2200    -1.2660     0.0590 ca         1 DCJ      -0.235800
      6 N1           4.0930     0.1990    -0.1110 nb         1 DCJ      -0.559000
      7 C2           3.3180     1.2230     0.2220 ca         1 DCJ       0.348300
      8 C1           3.9540     2.6150     0.3150 c          1 DCJ       0.822600
      9 O2           5.1680     2.6880     0.0730 o          1 DCJ      -0.807050
     10 O1           3.1810     3.5400     0.6300 o          1 DCJ      -0.807050
     11 C3           1.9620     1.0730     0.4940 ca         1 DCJ      -0.235800
     12 C4           1.4160    -0.1940     0.4050 ca         1 DCJ      -0.099200
     13 N2           0.0410    -0.3950     0.6610 na         1 DCJ       0.263300
     14 C8          -0.9560     0.5080     0.6590 cc         1 DCJ      -0.195600
     15 N3          -0.4240    -1.6070     0.9530 nc         1 DCJ      -0.140800
     16 N4          -1.6850    -1.5150     1.1350 nd         1 DCJ      -0.384000
     17 C9          -2.0710    -0.2280     0.9580 cd         1 DCJ       0.105600
     18 C10         -3.4720     0.2160     1.1440 c3         1 DCJ       0.147500
     19 N5          -4.3300     0.1580    -0.1050 n4         1 DCJ      -0.611800
     20 C13         -3.7780     1.0750    -1.1370 c3         1 DCJ       0.110600
     21 C14         -4.3620    -1.2320    -0.6390 c3         1 DCJ       0.110600
     22 C11         -5.7010     0.6180     0.3320 c3         1 DCJ       0.120800
     23 C12         -6.7830     0.6990    -0.7210 c3         1 DCJ       0.125400
     24 O5          -7.2390    -0.5830    -1.0690 oh         1 DCJ      -0.597800
     25 H5           1.8300    -2.2690    -0.0250 ha         1 DCJ       0.153500
     26 H3           1.3780     1.9390     0.7730 ha         1 DCJ       0.153500
     27 H8          -0.8180     1.5540     0.4470 h4         1 DCJ       0.203000
     28 H101        -3.9660    -0.4100     1.8870 hx         1 DCJ       0.085700
     29 H102        -3.5060     1.2460     1.4940 hx         1 DCJ       0.085700
     30 H131        -2.7800     0.7480    -1.4120 hx         1 DCJ       0.094700
     31 H132        -4.4070     1.0540    -2.0210 hx         1 DCJ       0.094700
     32 H133        -3.7430     2.0870    -0.7380 hx         1 DCJ       0.094700
     33 H141        -4.7660    -1.8970     0.1190 hx         1 DCJ       0.094700
     34 H142        -4.9860    -1.2630    -1.5240 hx         1 DCJ       0.094700
     35 H143        -3.3530    -1.5370    -0.8980 hx         1 DCJ       0.094700
     36 H111        -6.0110    -0.0490     1.1380 hx         1 DCJ       0.094700
     37 H112        -5.5620     1.6120     0.7550 hx         1 DCJ       0.094700
     38 H121        -7.5750     1.2960    -0.2540 h1         1 DCJ       0.045700
     39 H122        -6.4450     1.2730    -1.5900 h1         1 DCJ       0.045700
     40 HO5         -7.9120    -0.4880    -1.7480 ho         1 DCJ       0.430000
@<TRIPOS>BOND
     1     1     2 1   
     2     2     3 1   
     3     2     4 1   
     4     4     5 ar  
     5     4     6 ar  
     6     5    12 ar  
     7     5    25 1   
     8     6     7 ar  
     9     7     8 1   
    10     7    11 ar  
    11     8     9 1   
    12     8    10 1   
    13    11    12 ar  
    14    11    26 1   
    15    12    13 1   
    16    13    14 1   
    17    13    15 1   
    18    14    17 2   
    19    14    27 1   
    20    15    16 2   
    21    16    17 1   
    22    17    18 1   
    23    18    19 1   
    24    18    28 1   
    25    18    29 1   
    26    19    20 1   
    27    19    21 1   
    28    19    22 1   
    29    20    30 1   
    30    20    31 1   
    31    20    32 1   
    32    21    33 1   
    33    21    34 1   
    34    21    35 1   
    35    22    23 1   
    36    22    36 1   
    37    22    37 1   
    38    23    24 1   
    39    23    38 1   
    40    23    39 1   
    41    24    40 1   
@<TRIPOS>SUBSTRUCTURE
     1 DCJ         1 TEMP              0 ****  ****    0 ROOT
