@<TRIPOS>MOLECULE
DCK
   26    25     1     0     0
SMALL
abcg2


@<TRIPOS>ATOM
      1 C01         -2.2270     0.3290    -1.5140 c3         1 DCK       0.075900
      2 N02         -2.2940    -0.0750    -0.0840 n4         1 DCK      -0.489000
      3 C03         -2.6500     1.1090     0.7510 c3         1 DCK       0.075900
      4 C04         -3.3710    -1.0950     0.0720 c3         1 DCK       0.075900
      5 C05         -1.0010    -0.7090     0.3760 c3         1 DCK       0.052600
      6 C06          0.2970    -0.0170    -0.0310 c3         1 DCK       0.169300
      7 O07          0.3770     1.3230     0.3970 oh         1 DCK      -0.649000
      8 C08          1.4640    -0.8470     0.4800 c3         1 DCK      -0.255400
      9 C09          2.8300    -0.3820    -0.0700 c          1 DCK       0.727000
     10 O10          2.8520     0.0220    -1.2480 o          1 DCK      -0.699000
     11 O11          3.8020    -0.4910     0.7020 o          1 DCK      -0.699000
     12 H01         -1.5240     1.1470    -1.6360 hx         1 DCK       0.091367
     13 H01A        -1.9160    -0.5230    -2.1140 hx         1 DCK       0.091367
     14 H01B        -3.2150     0.6540    -1.8290 hx         1 DCK       0.091367
     15 H03         -3.6120     1.4930     0.4200 hx         1 DCK       0.091367
     16 H03A        -2.7220     0.7980     1.7900 hx         1 DCK       0.091367
     17 H03B        -1.8900     1.8730     0.6440 hx         1 DCK       0.091367
     18 H04         -3.1740    -1.9280    -0.5970 hx         1 DCK       0.091367
     19 H04A        -3.3850    -1.4460     1.1010 hx         1 DCK       0.091367
     20 H04B        -4.3270    -0.6440    -0.1760 hx         1 DCK       0.091367
     21 H05         -1.0810    -0.8030     1.4600 hx         1 DCK       0.082200
     22 H05A        -0.9940    -1.7150    -0.0430 hx         1 DCK       0.082200
     23 H06          0.3660     0.0100    -1.1200 h1         1 DCK       0.110700
     24 HO07         0.5360     1.3350     1.3480 ho         1 DCK       0.447000
     25 H08          1.4800    -0.8470     1.5730 hc         1 DCK       0.035200
     26 H08A         1.3260    -1.8910     0.1790 hc         1 DCK       0.035200
@<TRIPOS>BOND
     1     1     2 1   
     2     1    12 1   
     3     1    13 1   
     4     1    14 1   
     5     2     3 1   
     6     2     4 1   
     7     2     5 1   
     8     3    15 1   
     9     3    16 1   
    10     3    17 1   
    11     4    18 1   
    12     4    19 1   
    13     4    20 1   
    14     5     6 1   
    15     5    21 1   
    16     5    22 1   
    17     6     7 1   
    18     6     8 1   
    19     6    23 1   
    20     7    24 1   
    21     8     9 1   
    22     8    25 1   
    23     8    26 1   
    24     9    10 1   
    25     9    11 1   
@<TRIPOS>SUBSTRUCTURE
     1 DCK         1 TEMP              0 ****  ****    0 ROOT
