@<TRIPOS>MOLECULE
DCK
   26    25     1     0     0
SMALL
No Charge or Current Charge


@<TRIPOS>ATOM
      1 C01         -2.2820     0.2440    -1.6210 c3         1 DCK       0.075900
      2 N02         -2.3490    -0.0820    -0.1220 n4         1 DCK      -0.489000
      3 C03         -2.5830     1.2090     0.6730 c3         1 DCK       0.075900
      4 C04         -3.5260    -1.0330     0.1240 c3         1 DCK       0.075900
      5 C05         -1.0500    -0.7770     0.3400 c3         1 DCK       0.052600
      6 C06          0.3040    -0.0350     0.1930 c3         1 DCK       0.169300
      7 O07          0.4290     0.9670     1.2100 oh         1 DCK      -0.649000
      8 C08          1.4910    -1.0020     0.3400 c3         1 DCK      -0.255400
      9 C09          2.7780    -0.2560     0.0060 c          1 DCK       0.727000
     10 O10          3.1590    -0.2610    -1.1530 o          1 DCK      -0.699000
     11 O11          3.2850     0.4100     0.8960 o          1 DCK      -0.699000
     12 H01         -1.4720     0.9530    -1.8020 hx         1 DCK       0.091367
     13 H01A        -2.1010    -0.6750    -2.1820 hx         1 DCK       0.091367
     14 H01B        -3.2300     0.6860    -1.9350 hx         1 DCK       0.091367
     15 H03         -3.5290     1.6580     0.3640 hx         1 DCK       0.091367
     16 H03A        -2.6160     0.9730     1.7380 hx         1 DCK       0.091367
     17 H03B        -1.7640     1.9040     0.4790 hx         1 DCK       0.091367
     18 H04         -3.3710    -1.9530    -0.4440 hx         1 DCK       0.091367
     19 H04A        -3.5840    -1.2650     1.1900 hx         1 DCK       0.091367
     20 H04B        -4.4520    -0.5530    -0.1980 hx         1 DCK       0.091367
     21 H05         -1.1760    -1.0500     1.3890 hx         1 DCK       0.082200
     22 H05A        -0.9790    -1.7040    -0.2330 hx         1 DCK       0.082200
     23 H06          0.3500     0.4160    -0.8100 h1         1 DCK       0.110700
     24 HO07         1.3960     1.0550     1.3820 ho         1 DCK       0.447000
     25 H08          1.4930    -1.3340     1.3860 hc         1 DCK       0.035200
     26 H08A         1.3260    -1.8160    -0.3770 hc         1 DCK       0.035200
@<TRIPOS>BOND
     1     1     2 1   
     2     1    12 1   
     3     1    13 1   
     4     1    14 1   
     5     2     3 1   
     6     2     4 1   
     7     2     5 1   
     8     3    15 1   
     9     3    16 1   
    10     3    17 1   
    11     4    18 1   
    12     4    19 1   
    13     4    20 1   
    14     5     6 1   
    15     5    21 1   
    16     5    22 1   
    17     6     7 1   
    18     6     8 1   
    19     6    23 1   
    20     7    24 1   
    21     8     9 1   
    22     8    25 1   
    23     8    26 1   
    24     9    10 1   
    25     9    11 1   
@<TRIPOS>SUBSTRUCTURE
     1 DCK         1 TEMP              0 ****  ****    0 ROOT
