@<TRIPOS>MOLECULE
DCL
   23    22     1     0     0
SMALL
bcc


@<TRIPOS>ATOM
      1 N            0.9820     0.2810     1.4760 n8         1 DCL      -0.865800
      2 CA           0.7890    -0.1150     0.0880 c3         1 DCL       0.157500
      3 C            1.9790     0.3310    -0.7460 c3         1 DCL       0.149400
      4 CB          -0.4970     0.4170    -0.5560 c3         1 DCL      -0.116400
      5 CG          -1.7960     0.0810     0.1790 c3         1 DCL      -0.059700
      6 CD1         -2.9810     0.7170    -0.5410 c3         1 DCL      -0.089100
      7 CD2         -2.0060    -1.4220     0.3330 c3         1 DCL      -0.089100
      8 OXT          3.1570    -0.2860    -0.2820 oh         1 DCL      -0.576800
      9 HN1          0.8780     1.2870     1.5580 hn         1 DCL       0.334300
     10 HN2          0.2480    -0.1140     2.0510 hn         1 DCL       0.334300
     11 HA           0.7660    -1.2100     0.0640 h1         1 DCL       0.071700
     12 HC1          1.7830     0.0780    -1.7970 h1         1 DCL       0.012200
     13 HC2          2.0530     1.4290    -0.6970 h1         1 DCL       0.012200
     14 HB1         -0.4160     1.5080    -0.6400 hc         1 DCL       0.042700
     15 HB2         -0.5690     0.0380    -1.5820 hc         1 DCL       0.042700
     16 HG          -1.7450     0.5210     1.1820 hc         1 DCL       0.038700
     17 HD11        -3.0850     0.3160    -1.5530 hc         1 DCL       0.034367
     18 HD12        -3.9160     0.5260    -0.0130 hc         1 DCL       0.034367
     19 HD13        -2.8630     1.7980    -0.6270 hc         1 DCL       0.034367
     20 HD21        -1.2240    -1.8950     0.9290 hc         1 DCL       0.034367
     21 HD22        -2.9570    -1.6340     0.8240 hc         1 DCL       0.034367
     22 HD23        -2.0210    -1.9190    -0.6410 hc         1 DCL       0.034367
     23 HXT          3.8760    -0.0220    -0.8630 ho         1 DCL       0.397000
@<TRIPOS>BOND
     1     1     2 1   
     2     1     9 1   
     3     1    10 1   
     4     2     3 1   
     5     2     4 1   
     6     2    11 1   
     7     3     8 1   
     8     3    12 1   
     9     3    13 1   
    10     4     5 1   
    11     4    14 1   
    12     4    15 1   
    13     5     6 1   
    14     5     7 1   
    15     5    16 1   
    16     6    17 1   
    17     6    18 1   
    18     6    19 1   
    19     7    20 1   
    20     7    21 1   
    21     7    22 1   
    22     8    23 1   
@<TRIPOS>SUBSTRUCTURE
     1 DCL         1 TEMP              0 ****  ****    0 ROOT
