@<TRIPOS>MOLECULE
DCL
   23    22     1     0     0
SMALL
No Charge or Current Charge


@<TRIPOS>ATOM
      1 N            0.9470     0.3980     1.5060 n8         1 DCL      -0.976200
      2 CA           0.8140    -0.0960     0.1090 c3         1 DCL       0.157500
      3 C            2.0530     0.2690    -0.7750 c3         1 DCL       0.172600
      4 CB          -0.5030     0.4360    -0.5190 c3         1 DCL      -0.116400
      5 CG          -1.8280     0.0310     0.1930 c3         1 DCL      -0.059700
      6 CD1         -3.0410     0.7220    -0.4730 c3         1 DCL      -0.089100
      7 CD2         -2.0370    -1.5020     0.2470 c3         1 DCL      -0.089100
      8 OXT          3.2580    -0.3390    -0.2800 oh         1 DCL      -0.639000
      9 HN1          1.0480     1.4180     1.4860 hn         1 DCL       0.389500
     10 HN2          0.0550     0.2520     1.9890 hn         1 DCL       0.389500
     11 HA           0.7550    -1.1940     0.1410 h1         1 DCL       0.071700
     12 HC1          1.8670    -0.0710    -1.8030 h1         1 DCL       0.012200
     13 HC2          2.1650     1.3610    -0.8070 h1         1 DCL       0.012200
     14 HB1         -0.4470     1.5310    -0.5690 hc         1 DCL       0.042700
     15 HB2         -0.5540     0.0890    -1.5590 hc         1 DCL       0.042700
     16 HG          -1.7910     0.3950     1.2280 hc         1 DCL       0.038700
     17 HD11        -3.1510     0.3990    -1.5150 hc         1 DCL       0.034367
     18 HD12        -3.9680     0.4790     0.0610 hc         1 DCL       0.034367
     19 HD13        -2.9220     1.8120    -0.4610 hc         1 DCL       0.034367
     20 HD21        -1.2530    -1.9890     0.8380 hc         1 DCL       0.034367
     21 HD22        -2.9990    -1.7440     0.7140 hc         1 DCL       0.034367
     22 HD23        -2.0290    -1.9330    -0.7620 hc         1 DCL       0.034367
     23 HXT          3.9940    -0.0110    -0.8420 ho         1 DCL       0.436000
@<TRIPOS>BOND
     1     1     2 1   
     2     1     9 1   
     3     1    10 1   
     4     2     3 1   
     5     2     4 1   
     6     2    11 1   
     7     3     8 1   
     8     3    12 1   
     9     3    13 1   
    10     4     5 1   
    11     4    14 1   
    12     4    15 1   
    13     5     6 1   
    14     5     7 1   
    15     5    16 1   
    16     6    17 1   
    17     6    18 1   
    18     6    19 1   
    19     7    20 1   
    20     7    21 1   
    21     7    22 1   
    22     8    23 1   
@<TRIPOS>SUBSTRUCTURE
     1 DCL         1 TEMP              0 ****  ****    0 ROOT
