@<TRIPOS>MOLECULE
DCN
   24    25     1     0     0
SMALL
bcc


@<TRIPOS>ATOM
      1 C1           0.7020    -0.7440     3.1490 ca         1 DCN      -0.159000
      2 C2          -0.6440    -0.5850     3.4280 ca         1 DCN       0.064400
      3 C6           1.2310    -0.1730     1.9950 ca         1 DCN       0.156100
      4 C5           0.3900     0.5550     1.1530 ca         1 DCN      -0.008900
      5 C4          -0.9510     0.7130     1.4540 ca         1 DCN      -0.089000
      6 C3          -1.4860     0.1410     2.5980 ca         1 DCN      -0.153000
      7 C11          0.3910    -0.4390    -3.7330 ca         1 DCN      -0.000600
      8 C10          0.9480     0.8200    -3.5620 ca         1 DCN      -0.089500
      9 C9           1.1130     1.3260    -2.2840 ca         1 DCN      -0.165000
     10 C8           0.7240     0.5710    -1.1830 ca         1 DCN       0.120100
     11 C12          0.0010    -1.1930    -2.6400 ca         1 DCN      -0.089500
     12 C13          0.1680    -0.6880    -1.3570 ca         1 DCN      -0.165000
     13 O7           0.9430     1.1400     0.0410 os         1 DCN      -0.257200
     14 CL14        -1.2890    -1.3090     4.8630 cl         1 DCN      -0.097400
     15 O17          2.5350    -0.3480     1.7380 oh         1 DCN      -0.484100
     16 H1           1.3460    -1.3100     3.8090 ha         1 DCN       0.167000
     17 H4          -1.5850     1.2890     0.7930 ha         1 DCN       0.152000
     18 H3          -2.5330     0.2620     2.8330 ha         1 DCN       0.155000
     19 H10          1.2490     1.4100    -4.4170 ha         1 DCN       0.150500
     20 H9           1.5460     2.3080    -2.1430 ha         1 DCN       0.151500
     21 H12         -0.4330    -2.1740    -2.7740 ha         1 DCN       0.150500
     22 H13         -0.1420    -1.2920    -0.5140 ha         1 DCN       0.151500
     23 H17          2.8090     0.1780     0.9770 ho         1 DCN       0.446000
     24 CL15         0.1810    -1.0730    -5.3330 cl         1 DCN      -0.106400
@<TRIPOS>BOND
     1     1     2 ar  
     2     1     3 ar  
     3     1    16 1   
     4     2     6 ar  
     5     2    14 1   
     6     3     4 ar  
     7     3    15 1   
     8     4     5 ar  
     9     4    13 1   
    10     5     6 ar  
    11     5    17 1   
    12     6    18 1   
    13     7     8 ar  
    14     7    11 ar  
    15     7    24 1   
    16     8     9 ar  
    17     8    19 1   
    18     9    10 ar  
    19     9    20 1   
    20    10    12 ar  
    21    10    13 1   
    22    11    12 ar  
    23    11    21 1   
    24    12    22 1   
    25    15    23 1   
@<TRIPOS>SUBSTRUCTURE
     1 DCN         1 TEMP              0 ****  ****    0 ROOT
