@<TRIPOS>MOLECULE
DCN
   24    25     1     0     0
SMALL
No Charge or Current Charge


@<TRIPOS>ATOM
      1 C1           0.6710    -0.4610     3.4900 ca         1 DCN      -0.141000
      2 C2          -0.7320    -0.4030     3.5160 ca         1 DCN       0.156000
      3 C6           1.3640    -0.1110     2.3220 ca         1 DCN       0.156100
      4 C5           0.6550     0.2900     1.1700 ca         1 DCN      -0.008900
      5 C4          -0.7530     0.3590     1.2030 ca         1 DCN      -0.071000
      6 C3          -1.4440     0.0080     2.3770 ca         1 DCN      -0.135000
      7 C11          0.0760    -0.2250    -3.8590 ca         1 DCN       0.091000
      8 C10          0.7020     1.0010    -3.5750 ca         1 DCN      -0.071500
      9 C9           1.1270     1.2830    -2.2630 ca         1 DCN      -0.147000
     10 C8           0.9190     0.3460    -1.2380 ca         1 DCN       0.120100
     11 C12         -0.1220    -1.1710    -2.8380 ca         1 DCN      -0.071500
     12 C13          0.3030    -0.8880    -1.5270 ca         1 DCN      -0.147000
     13 O7           1.3560     0.6410     0.0330 os         1 DCN      -0.257200
     14 Cl14        -1.6000    -0.8410     4.9810 cl         1 DCN      -0.189000
     15 O17          2.7270    -0.1650     2.3010 oh         1 DCN      -0.523100
     16 H1           1.2180    -0.7740     4.3750 ha         1 DCN       0.149000
     17 H4          -1.3100     0.6880     0.3280 ha         1 DCN       0.134000
     18 H3          -2.5300     0.0570     2.4050 ha         1 DCN       0.137000
     19 H10          0.8580     1.7280    -4.3680 ha         1 DCN       0.132500
     20 H9           1.6130     2.2300    -2.0400 ha         1 DCN       0.133500
     21 H12         -0.6000    -2.1210    -3.0640 ha         1 DCN       0.132500
     22 H13          0.1590    -1.6270    -0.7430 ha         1 DCN       0.133500
     23 H17          3.0120     0.1210     1.4060 ho         1 DCN       0.485000
     24 Cl15        -0.4550    -0.5800    -5.4980 cl         1 DCN      -0.198000
@<TRIPOS>BOND
     1     1     2 ar  
     2     1     3 ar  
     3     1    16 1   
     4     2     6 ar  
     5     2    14 1   
     6     3     4 ar  
     7     3    15 1   
     8     4     5 ar  
     9     4    13 1   
    10     5     6 ar  
    11     5    17 1   
    12     6    18 1   
    13     7     8 ar  
    14     7    11 ar  
    15     7    24 1   
    16     8     9 ar  
    17     8    19 1   
    18     9    10 ar  
    19     9    20 1   
    20    10    12 ar  
    21    10    13 1   
    22    11    12 ar  
    23    11    21 1   
    24    12    22 1   
    25    15    23 1   
@<TRIPOS>SUBSTRUCTURE
     1 DCN         1 TEMP              0 ****  ****    0 ROOT
