@<TRIPOS>MOLECULE
DCO
   14    13     1     0     0
SMALL
No Charge or Current Charge


@<TRIPOS>ATOM
      1 O1          -2.5000    -0.0910     1.6410 o          1 DCO      -0.743500
      2 C1          -1.9380    -0.5440     0.6520 c          1 DCO       0.748200
      3 O2          -2.5940    -1.0700    -0.2410 o          1 DCO      -0.743500
      4 C2          -0.4060    -0.5040     0.5310 ce         1 DCO       0.027600
      5 C3           0.1950    -1.0680    -0.7760 c3         1 DCO      -0.348200
      6 P1           0.2440     0.2050    -2.1050 p5         1 DCO       1.307500
      7 O3          -0.4250    -0.3440    -3.3190 o          1 DCO      -0.935167
      8 O4          -0.4510     1.4410    -1.6450 o          1 DCO      -0.935167
      9 O5           1.6710     0.5090    -2.4140 o          1 DCO      -0.935167
     10 C4           0.4200    -0.0120     1.5090 c2         1 DCO       0.131000
     11 Cl1          2.1660     0.0400     1.3770 cl         1 DCO      -0.314000
     12 Cl2         -0.0440     0.6540     3.0610 cl         1 DCO      -0.314000
     13 H31          1.2070    -1.4590    -0.6400 hc         1 DCO       0.028200
     14 H32         -0.3870    -1.9160    -1.1520 hc         1 DCO       0.028200
@<TRIPOS>BOND
     1     1     2 1   
     2     2     3 1   
     3     2     4 1   
     4     4     5 1   
     5     4    10 2   
     6     5     6 1   
     7     5    13 1   
     8     5    14 1   
     9     6     7 1   
    10     6     8 1   
    11     6     9 1   
    12    10    11 1   
    13    10    12 1   
@<TRIPOS>SUBSTRUCTURE
     1 DCO         1 TEMP              0 ****  ****    0 ROOT
