@<TRIPOS>MOLECULE
DCO
   14    13     1     0     0
SMALL
abcg2


@<TRIPOS>ATOM
      1 O1          -2.1210     0.8850     1.1010 o          1 DCO      -0.743500
      2 C1          -1.7970    -0.2520     0.7330 c          1 DCO       0.748200
      3 O2          -2.5430    -1.2310     0.5370 o          1 DCO      -0.743500
      4 C2          -0.3120    -0.5340     0.4950 ce         1 DCO       0.027600
      5 C3           0.0590    -1.0440    -0.8470 c3         1 DCO      -0.348200
      6 P1           0.1210     0.3220    -2.1440 p5         1 DCO       1.307500
      7 O3           0.5730    -0.4190    -3.4120 o          1 DCO      -0.935167
      8 O4          -1.3130     0.8520    -2.2200 o          1 DCO      -0.935167
      9 O5           1.1440     1.3310    -1.6220 o          1 DCO      -0.935167
     10 C4           0.5710    -0.3290     1.4680 c2         1 DCO       0.131000
     11 CL1          2.2700    -0.6670     1.3250 cl         1 DCO      -0.314000
     12 CL2          0.1720     0.2560     3.0530 cl         1 DCO      -0.314000
     13 H31          1.0230    -1.5560    -0.8290 hc         1 DCO       0.028200
     14 H32         -0.6900    -1.7740    -1.1590 hc         1 DCO       0.028200
@<TRIPOS>BOND
     1     1     2 1   
     2     2     3 1   
     3     2     4 1   
     4     4     5 1   
     5     4    10 2   
     6     5     6 1   
     7     5    13 1   
     8     5    14 1   
     9     6     7 1   
    10     6     8 1   
    11     6     9 1   
    12    10    11 1   
    13    10    12 1   
@<TRIPOS>SUBSTRUCTURE
     1 DCO         1 TEMP              0 ****  ****    0 ROOT
