@<TRIPOS>MOLECULE
DCQ
   53    53     1     0     0
SMALL
No Charge or Current Charge


@<TRIPOS>ATOM
      1 O2           4.6890    -2.5970     0.6240 o          1 DCQ      -0.482100
      2 C2           4.1020    -1.5680     0.3060 c          1 DCQ       0.538500
      3 C3           4.6970    -0.2040     0.4860 cc         1 DCQ       0.012900
      4 O3           5.9410     0.0550     1.0560 os         1 DCQ      -0.340100
      5 C3M          6.8150    -0.9730     1.5590 c3         1 DCQ       0.152900
      6 C4           4.0680     0.9530     0.0450 cd         1 DCQ       0.015900
      7 O4           4.7690     2.1400     0.2570 os         1 DCQ      -0.339100
      8 C4M          4.2800     3.4410    -0.1220 c3         1 DCQ       0.153900
      9 C5           2.7130     0.8980    -0.6150 c          1 DCQ       0.540500
     10 O5           2.1310     1.8930    -1.0350 o          1 DCQ      -0.480100
     11 C1           2.7160    -1.6100    -0.2530 cc         1 DCQ      -0.131400
     12 C1M          2.0990    -3.0020    -0.3180 c3         1 DCQ      -0.055900
     13 C6           2.0850    -0.4620    -0.7290 cd         1 DCQ      -0.135400
     14 C7           0.7100    -0.4880    -1.3910 c3         1 DCQ      -0.038200
     15 C8          -0.4340    -0.2420    -0.3830 c3         1 DCQ      -0.071400
     16 C9          -1.8350    -0.3010    -1.0290 c3         1 DCQ      -0.074400
     17 C10         -2.9760    -0.0560    -0.0180 c3         1 DCQ      -0.074400
     18 C11         -4.3780    -0.1150    -0.6640 c3         1 DCQ      -0.074400
     19 C12         -5.5200     0.1310     0.3470 c3         1 DCQ      -0.074400
     20 C13         -6.9220     0.0720    -0.2980 c3         1 DCQ      -0.074400
     21 C14         -8.0630     0.3170     0.7120 c3         1 DCQ      -0.075400
     22 C15         -9.4650     0.2580     0.0670 c3         1 DCQ      -0.074400
     23 C16        -10.6040     0.5030     1.0750 c3         1 DCQ      -0.088100
     24 H3M          7.7290    -0.5250     1.9680 h1         1 DCQ       0.044367
     25 H3MA         6.3310    -1.5410     2.3640 h1         1 DCQ       0.044367
     26 H3MB         7.1090    -1.6650     0.7600 h1         1 DCQ       0.044367
     27 H4M          4.1260     3.5030    -1.2070 h1         1 DCQ       0.044367
     28 H4MA         3.3370     3.6720     0.3900 h1         1 DCQ       0.044367
     29 H4MB         5.0080     4.2130     0.1560 h1         1 DCQ       0.044367
     30 H1M          2.4210    -3.6410     0.5130 hc         1 DCQ       0.057033
     31 H1MA         1.0060    -2.9710    -0.2600 hc         1 DCQ       0.057033
     32 H1MB         2.3720    -3.5050    -1.2540 hc         1 DCQ       0.057033
     33 H7           0.6450     0.2580    -2.1940 hc         1 DCQ       0.059700
     34 H7A          0.5430    -1.4440    -1.9000 hc         1 DCQ       0.059700
     35 H8          -0.3750    -0.9900     0.4180 hc         1 DCQ       0.045200
     36 H8A         -0.2950     0.7390     0.0880 hc         1 DCQ       0.045200
     37 H9          -1.8950     0.4480    -1.8280 hc         1 DCQ       0.039200
     38 H9A         -1.9750    -1.2830    -1.4980 hc         1 DCQ       0.039200
     39 H10         -2.9170    -0.8050     0.7820 hc         1 DCQ       0.038700
     40 H10A        -2.8370     0.9260     0.4510 hc         1 DCQ       0.038700
     41 H11         -4.4380     0.6340    -1.4630 hc         1 DCQ       0.037700
     42 H11A        -4.5180    -1.0970    -1.1330 hc         1 DCQ       0.037700
     43 H12         -5.4600    -0.6180     1.1470 hc         1 DCQ       0.037700
     44 H12A        -5.3800     1.1130     0.8170 hc         1 DCQ       0.037700
     45 H13         -6.9810     0.8210    -1.0980 hc         1 DCQ       0.036700
     46 H13A        -7.0610    -0.9100    -0.7680 hc         1 DCQ       0.036700
     47 H14         -8.0030    -0.4320     1.5120 hc         1 DCQ       0.037200
     48 H14A        -7.9240     1.2990     1.1820 hc         1 DCQ       0.037200
     49 H15         -9.5300     1.0070    -0.7320 hc         1 DCQ       0.036700
     50 H15A        -9.6090    -0.7230    -0.4010 hc         1 DCQ       0.036700
     51 H16        -10.5890    -0.2520     1.8700 hc         1 DCQ       0.031367
     52 H16A       -10.5080     1.4940     1.5370 hc         1 DCQ       0.031367
     53 H16B       -11.5770     0.4520     0.5720 hc         1 DCQ       0.031367
@<TRIPOS>BOND
     1     1     2 2   
     2     2     3 1   
     3     2    11 1   
     4     3     4 1   
     5     3     6 2   
     6     4     5 1   
     7     5    24 1   
     8     5    25 1   
     9     5    26 1   
    10     6     7 1   
    11     6     9 1   
    12     7     8 1   
    13     8    27 1   
    14     8    28 1   
    15     8    29 1   
    16     9    10 2   
    17     9    13 1   
    18    11    12 1   
    19    11    13 2   
    20    12    30 1   
    21    12    31 1   
    22    12    32 1   
    23    13    14 1   
    24    14    15 1   
    25    14    33 1   
    26    14    34 1   
    27    15    16 1   
    28    15    35 1   
    29    15    36 1   
    30    16    17 1   
    31    16    37 1   
    32    16    38 1   
    33    17    18 1   
    34    17    39 1   
    35    17    40 1   
    36    18    19 1   
    37    18    41 1   
    38    18    42 1   
    39    19    20 1   
    40    19    43 1   
    41    19    44 1   
    42    20    21 1   
    43    20    45 1   
    44    20    46 1   
    45    21    22 1   
    46    21    47 1   
    47    21    48 1   
    48    22    23 1   
    49    22    49 1   
    50    22    50 1   
    51    23    51 1   
    52    23    52 1   
    53    23    53 1   
@<TRIPOS>SUBSTRUCTURE
     1 DCQ         1 TEMP              0 ****  ****    0 ROOT
