@<TRIPOS>MOLECULE
DCQ
   53    53     1     0     0
SMALL
bcc


@<TRIPOS>ATOM
      1 O2           4.5210    -2.5410     0.0150 o          1 DCQ      -0.482100
      2 C2           3.9480    -1.4800    -0.1040 c          1 DCQ       0.538500
      3 C3           4.6360    -0.2280     0.3000 cc         1 DCQ       0.012900
      4 O3           5.8870    -0.3320     0.7730 os         1 DCQ      -0.316900
      5 C3M          5.9890    -0.6560     2.1600 c3         1 DCQ       0.129700
      6 C4           4.0230     0.9550     0.1610 cd         1 DCQ       0.015900
      7 O4           4.5760     2.1050     0.5760 os         1 DCQ      -0.315900
      8 C4M          5.3040     2.8230    -0.4190 c3         1 DCQ       0.130700
      9 C5           2.6710     1.0340    -0.4480 c          1 DCQ       0.540500
     10 O5           2.1390     2.1170    -0.5710 o          1 DCQ      -0.480100
     11 C1           2.5740    -1.4080    -0.6660 cc         1 DCQ      -0.131400
     12 C1M          1.9520    -2.7270    -0.9950 c3         1 DCQ      -0.055900
     13 C6           1.9870    -0.2160    -0.8730 cd         1 DCQ      -0.135400
     14 C7           0.6210    -0.0560    -1.4670 c3         1 DCQ      -0.038200
     15 C8          -0.4830    -0.0910    -0.4060 c3         1 DCQ      -0.071400
     16 C9          -1.8730     0.0110    -1.0200 c3         1 DCQ      -0.074400
     17 C10         -2.9860    -0.0110     0.0200 c3         1 DCQ      -0.074400
     18 C11         -4.3790     0.0350    -0.5940 c3         1 DCQ      -0.074400
     19 C12         -5.4970     0.0190     0.4410 c3         1 DCQ      -0.074400
     20 C13         -6.8890     0.0350    -0.1790 c3         1 DCQ      -0.074400
     21 C14         -8.0100     0.0230     0.8520 c3         1 DCQ      -0.075400
     22 C15         -9.4010     0.0280     0.2300 c3         1 DCQ      -0.074400
     23 C16        -10.5140     0.0160     1.2680 c3         1 DCQ      -0.088100
     24 H3M          7.0490    -0.7340     2.3870 h1         1 DCQ       0.044367
     25 H3MA         5.5490     0.1300     2.7780 h1         1 DCQ       0.044367
     26 H3MB         5.5070    -1.6070     2.3930 h1         1 DCQ       0.044367
     27 H4M          6.1800     2.2600    -0.7470 h1         1 DCQ       0.044367
     28 H4MA         4.6850     3.0580    -1.2860 h1         1 DCQ       0.044367
     29 H4MB         5.6310     3.7520     0.0400 h1         1 DCQ       0.044367
     30 H1M          2.0320    -3.4120    -0.1510 hc         1 DCQ       0.057033
     31 H1MA         0.8990    -2.6330    -1.2460 hc         1 DCQ       0.057033
     32 H1MB         2.4600    -3.1980    -1.8370 hc         1 DCQ       0.057033
     33 H7           0.5660     0.8880    -2.0110 hc         1 DCQ       0.059700
     34 H7A          0.4450    -0.8410    -2.2040 hc         1 DCQ       0.059700
     35 H8          -0.4070    -1.0190     0.1700 hc         1 DCQ       0.045200
     36 H8A         -0.3330     0.7260     0.3060 hc         1 DCQ       0.045200
     37 H9          -1.9450     0.9300    -1.6120 hc         1 DCQ       0.039200
     38 H9A         -2.0170    -0.8150    -1.7240 hc         1 DCQ       0.039200
     39 H10         -2.8920    -0.9140     0.6340 hc         1 DCQ       0.038700
     40 H10A        -2.8610     0.8340     0.7060 hc         1 DCQ       0.038700
     41 H11         -4.4730     0.9330    -1.2160 hc         1 DCQ       0.037700
     42 H11A        -4.5030    -0.8160    -1.2740 hc         1 DCQ       0.037700
     43 H12         -5.3930    -0.8690     1.0740 hc         1 DCQ       0.037700
     44 H12A        -5.3860     0.8800     1.1090 hc         1 DCQ       0.037700
     45 H13         -6.9920     0.9210    -0.8170 hc         1 DCQ       0.036700
     46 H13A        -6.9980    -0.8280    -0.8440 hc         1 DCQ       0.036700
     47 H14         -7.9040    -0.8600     1.4940 hc         1 DCQ       0.037200
     48 H14A        -7.9060     0.8900     1.5140 hc         1 DCQ       0.037200
     49 H15         -9.5060     0.9090    -0.4120 hc         1 DCQ       0.036700
     50 H15A        -9.5040    -0.8390    -0.4300 hc         1 DCQ       0.036700
     51 H16        -10.4520    -0.8720     1.9010 hc         1 DCQ       0.031367
     52 H16A       -10.4540     0.8890     1.9200 hc         1 DCQ       0.031367
     53 H16B       -11.5000     0.0200     0.8020 hc         1 DCQ       0.031367
@<TRIPOS>BOND
     1     1     2 2   
     2     2     3 1   
     3     2    11 1   
     4     3     4 1   
     5     3     6 2   
     6     4     5 1   
     7     5    24 1   
     8     5    25 1   
     9     5    26 1   
    10     6     7 1   
    11     6     9 1   
    12     7     8 1   
    13     8    27 1   
    14     8    28 1   
    15     8    29 1   
    16     9    10 2   
    17     9    13 1   
    18    11    12 1   
    19    11    13 2   
    20    12    30 1   
    21    12    31 1   
    22    12    32 1   
    23    13    14 1   
    24    14    15 1   
    25    14    33 1   
    26    14    34 1   
    27    15    16 1   
    28    15    35 1   
    29    15    36 1   
    30    16    17 1   
    31    16    37 1   
    32    16    38 1   
    33    17    18 1   
    34    17    39 1   
    35    17    40 1   
    36    18    19 1   
    37    18    41 1   
    38    18    42 1   
    39    19    20 1   
    40    19    43 1   
    41    19    44 1   
    42    20    21 1   
    43    20    45 1   
    44    20    46 1   
    45    21    22 1   
    46    21    47 1   
    47    21    48 1   
    48    22    23 1   
    49    22    49 1   
    50    22    50 1   
    51    23    51 1   
    52    23    52 1   
    53    23    53 1   
@<TRIPOS>SUBSTRUCTURE
     1 DCQ         1 TEMP              0 ****  ****    0 ROOT
