@<TRIPOS>MOLECULE
DCR
   61    60     1     0     0
SMALL
No Charge or Current Charge


@<TRIPOS>ATOM
      1 O1         -11.4760     0.4800    -1.0970 o          1 DCR      -0.744000
      2 C1         -11.0170     0.1960    -0.0000 c          1 DCR       0.717000
      3 O2         -11.4740     0.6170     1.0520 o          1 DCR      -0.744000
      4 C2          -9.7610    -0.6920     0.0560 c3         1 DCR      -0.203400
      5 C3          -8.4840     0.1830    -0.0020 c3         1 DCR      -0.054400
      6 C4          -7.1790    -0.6410     0.0500 c3         1 DCR      -0.079400
      7 C5          -5.9070     0.2340    -0.0070 c3         1 DCR      -0.075400
      8 C6          -4.6020    -0.5910     0.0440 c3         1 DCR      -0.075400
      9 C7          -3.3310     0.2850    -0.0130 c3         1 DCR      -0.075400
     10 C8          -2.0270    -0.5400     0.0380 c3         1 DCR      -0.074400
     11 C9          -0.7560     0.3350    -0.0190 c3         1 DCR      -0.074400
     12 C10          0.5490    -0.4900     0.0320 c3         1 DCR      -0.074400
     13 C11          1.8200     0.3860    -0.0250 c3         1 DCR      -0.074400
     14 C12          3.1250    -0.4390     0.0250 c3         1 DCR      -0.074400
     15 C13          4.3960     0.4370    -0.0320 c3         1 DCR      -0.074400
     16 C14          5.7010    -0.3880     0.0190 c3         1 DCR      -0.074400
     17 C15          6.9720     0.4880    -0.0380 c3         1 DCR      -0.074400
     18 C16          8.2770    -0.3370     0.0120 c3         1 DCR      -0.074400
     19 C17          9.5480     0.5380    -0.0440 c3         1 DCR      -0.074400
     20 C18         10.8520    -0.2860     0.0060 c3         1 DCR      -0.076400
     21 C19         12.1230     0.5890    -0.0510 c3         1 DCR      -0.075400
     22 C20         13.4250    -0.2330    -0.0010 c3         1 DCR      -0.088100
     23 H2          -9.7130    -1.2300     1.0100 hc         1 DCR       0.014200
     24 H2A         -9.7150    -1.3470    -0.8230 hc         1 DCR       0.014200
     25 H3          -8.4970     0.7790    -0.9230 hc         1 DCR       0.037700
     26 H3A         -8.4950     0.8920     0.8360 hc         1 DCR       0.037700
     27 H4          -7.1640    -1.2360     0.9720 hc         1 DCR       0.023700
     28 H4A         -7.1660    -1.3490    -0.7880 hc         1 DCR       0.023700
     29 H5          -5.9210     0.8290    -0.9290 hc         1 DCR       0.033700
     30 H5A         -5.9190     0.9410     0.8310 hc         1 DCR       0.033700
     31 H6          -4.5890    -1.1860     0.9660 hc         1 DCR       0.031700
     32 H6A         -4.5900    -1.2980    -0.7940 hc         1 DCR       0.031700
     33 H7          -3.3450     0.8800    -0.9350 hc         1 DCR       0.035200
     34 H7A         -3.3430     0.9920     0.8260 hc         1 DCR       0.035200
     35 H8          -2.0130    -1.1350     0.9600 hc         1 DCR       0.034700
     36 H8A         -2.0150    -1.2470    -0.8010 hc         1 DCR       0.034700
     37 H9          -0.7690     0.9310    -0.9410 hc         1 DCR       0.036200
     38 H9A         -0.7670     1.0420     0.8200 hc         1 DCR       0.036200
     39 H10          0.5630    -1.0850     0.9530 hc         1 DCR       0.035700
     40 H10A         0.5610    -1.1970    -0.8070 hc         1 DCR       0.035700
     41 H11          1.8060     0.9820    -0.9470 hc         1 DCR       0.036700
     42 H11A         1.8080     1.0930     0.8140 hc         1 DCR       0.036700
     43 H12          3.1390    -1.0350     0.9470 hc         1 DCR       0.036700
     44 H12A         3.1370    -1.1460    -0.8140 hc         1 DCR       0.036700
     45 H13          4.3820     1.0330    -0.9530 hc         1 DCR       0.036700
     46 H13A         4.3840     1.1430     0.8080 hc         1 DCR       0.036700
     47 H14          5.7150    -0.9840     0.9400 hc         1 DCR       0.036700
     48 H14A         5.7130    -1.0950    -0.8200 hc         1 DCR       0.036700
     49 H15          6.9580     1.0830    -0.9590 hc         1 DCR       0.036700
     50 H15A         6.9600     1.1940     0.8010 hc         1 DCR       0.036700
     51 H16          8.2910    -0.9330     0.9340 hc         1 DCR       0.036700
     52 H16A         8.2880    -1.0440    -0.8270 hc         1 DCR       0.036700
     53 H17          9.5330     1.1340    -0.9660 hc         1 DCR       0.036700
     54 H17A         9.5360     1.2450     0.7950 hc         1 DCR       0.036700
     55 H18         10.8670    -0.8820     0.9270 hc         1 DCR       0.036700
     56 H18A        10.8640    -0.9930    -0.8330 hc         1 DCR       0.036700
     57 H19         12.1140     1.1850    -0.9720 hc         1 DCR       0.036700
     58 H19A        12.1160     1.2960     0.7880 hc         1 DCR       0.036700
     59 H20         14.2980     0.4290    -0.0440 hc         1 DCR       0.030033
     60 H20A        13.4820    -0.8150     0.9280 hc         1 DCR       0.030033
     61 H20B        13.4790    -0.9270    -0.8480 hc         1 DCR       0.030033
@<TRIPOS>BOND
     1     1     2 1   
     2     2     3 1   
     3     2     4 1   
     4     4     5 1   
     5     4    23 1   
     6     4    24 1   
     7     5     6 1   
     8     5    25 1   
     9     5    26 1   
    10     6     7 1   
    11     6    27 1   
    12     6    28 1   
    13     7     8 1   
    14     7    29 1   
    15     7    30 1   
    16     8     9 1   
    17     8    31 1   
    18     8    32 1   
    19     9    10 1   
    20     9    33 1   
    21     9    34 1   
    22    10    11 1   
    23    10    35 1   
    24    10    36 1   
    25    11    12 1   
    26    11    37 1   
    27    11    38 1   
    28    12    13 1   
    29    12    39 1   
    30    12    40 1   
    31    13    14 1   
    32    13    41 1   
    33    13    42 1   
    34    14    15 1   
    35    14    43 1   
    36    14    44 1   
    37    15    16 1   
    38    15    45 1   
    39    15    46 1   
    40    16    17 1   
    41    16    47 1   
    42    16    48 1   
    43    17    18 1   
    44    17    49 1   
    45    17    50 1   
    46    18    19 1   
    47    18    51 1   
    48    18    52 1   
    49    19    20 1   
    50    19    53 1   
    51    19    54 1   
    52    20    21 1   
    53    20    55 1   
    54    20    56 1   
    55    21    22 1   
    56    21    57 1   
    57    21    58 1   
    58    22    59 1   
    59    22    60 1   
    60    22    61 1   
@<TRIPOS>SUBSTRUCTURE
     1 DCR         1 TEMP              0 ****  ****    0 ROOT
