@<TRIPOS>MOLECULE
DCR
   61    60     1     0     0
SMALL
bcc


@<TRIPOS>ATOM
      1 O1         -11.9670    -0.6490    -0.2060 o          1 DCR      -0.849300
      2 C1         -10.9530     0.0680    -0.0630 c          1 DCR       0.927600
      3 O2         -10.9430     1.3080     0.0660 o          1 DCR      -0.849300
      4 C2          -9.6040    -0.6710    -0.0380 c3         1 DCR      -0.203400
      5 C3          -8.3600     0.2020    -0.0040 c3         1 DCR      -0.054400
      6 C4          -7.0690    -0.6090     0.0100 c3         1 DCR      -0.079400
      7 C5          -5.8150     0.2560     0.0280 c3         1 DCR      -0.075400
      8 C6          -4.5240    -0.5540     0.0350 c3         1 DCR      -0.075400
      9 C7          -3.2690     0.3110     0.0410 c3         1 DCR      -0.075400
     10 C8          -1.9790    -0.5000     0.0410 c3         1 DCR      -0.074400
     11 C9          -0.7240     0.3640     0.0420 c3         1 DCR      -0.074400
     12 C10          0.5650    -0.4490     0.0330 c3         1 DCR      -0.074400
     13 C11          1.8220     0.4140     0.0320 c3         1 DCR      -0.074400
     14 C12          3.1090    -0.4010     0.0200 c3         1 DCR      -0.074400
     15 C13          4.3680     0.4590     0.0170 c3         1 DCR      -0.074400
     16 C14          5.6530    -0.3590     0.0040 c3         1 DCR      -0.074400
     17 C15          6.9140     0.4970    -0.0020 c3         1 DCR      -0.074400
     18 C16          8.1970    -0.3250    -0.0140 c3         1 DCR      -0.074400
     19 C17          9.4600     0.5270    -0.0180 c3         1 DCR      -0.074400
     20 C18         10.7400    -0.2990    -0.0290 c3         1 DCR      -0.076400
     21 C19         12.0080     0.5460    -0.0320 c3         1 DCR      -0.075400
     22 C20         13.2760    -0.2970    -0.0430 c3         1 DCR      -0.088100
     23 H2          -9.6030    -1.3420     0.8310 hc         1 DCR       0.014200
     24 H2A         -9.5600    -1.3390    -0.9060 hc         1 DCR       0.014200
     25 H3          -8.3530     0.8710    -0.8700 hc         1 DCR       0.037700
     26 H3A         -8.3870     0.8520     0.8760 hc         1 DCR       0.037700
     27 H4          -7.0640    -1.2730     0.8820 hc         1 DCR       0.023700
     28 H4A         -7.0410    -1.2660    -0.8670 hc         1 DCR       0.023700
     29 H5          -5.8210     0.9210    -0.8430 hc         1 DCR       0.033700
     30 H5A         -5.8370     0.9100     0.9070 hc         1 DCR       0.033700
     31 H6          -4.5140    -1.2150     0.9080 hc         1 DCR       0.031700
     32 H6A         -4.5050    -1.2120    -0.8420 hc         1 DCR       0.031700
     33 H7          -3.2810     0.9730    -0.8320 hc         1 DCR       0.035200
     34 H7A         -3.2850     0.9680     0.9190 hc         1 DCR       0.035200
     35 H8          -1.9650    -1.1610     0.9150 hc         1 DCR       0.034700
     36 H8A         -1.9650    -1.1580    -0.8350 hc         1 DCR       0.034700
     37 H9          -0.7400     1.0270    -0.8310 hc         1 DCR       0.036200
     38 H9A         -0.7350     1.0190     0.9200 hc         1 DCR       0.036200
     39 H10          0.5820    -1.1120     0.9050 hc         1 DCR       0.035700
     40 H10A         0.5750    -1.1040    -0.8450 hc         1 DCR       0.035700
     41 H11          1.8040     1.0780    -0.8400 hc         1 DCR       0.036700
     42 H11A         1.8140     1.0680     0.9110 hc         1 DCR       0.036700
     43 H12          3.1260    -1.0650     0.8910 hc         1 DCR       0.036700
     44 H12A         3.1160    -1.0560    -0.8590 hc         1 DCR       0.036700
     45 H13          4.3510     1.1230    -0.8550 hc         1 DCR       0.036700
     46 H13A         4.3620     1.1130     0.8960 hc         1 DCR       0.036700
     47 H14          5.6700    -1.0220     0.8770 hc         1 DCR       0.036700
     48 H14A         5.6570    -1.0160    -0.8730 hc         1 DCR       0.036700
     49 H15          6.8980     1.1600    -0.8750 hc         1 DCR       0.036700
     50 H15A         6.9110     1.1530     0.8760 hc         1 DCR       0.036700
     51 H16          8.2110    -0.9890     0.8570 hc         1 DCR       0.036700
     52 H16A         8.1990    -0.9800    -0.8930 hc         1 DCR       0.036700
     53 H17          9.4490     1.1910    -0.8900 hc         1 DCR       0.036700
     54 H17A         9.4590     1.1830     0.8600 hc         1 DCR       0.036700
     55 H18         10.7510    -0.9630     0.8440 hc         1 DCR       0.036700
     56 H18A        10.7420    -0.9560    -0.9070 hc         1 DCR       0.036700
     57 H19         11.9990     1.2080    -0.9040 hc         1 DCR       0.036700
     58 H19A        12.0090     1.2000     0.8450 hc         1 DCR       0.036700
     59 H20         14.1740     0.3230    -0.0440 hc         1 DCR       0.030033
     60 H20A        13.3230    -0.9460     0.8340 hc         1 DCR       0.030033
     61 H20B        13.3160    -0.9360    -0.9270 hc         1 DCR       0.030033
@<TRIPOS>BOND
     1     1     2 1   
     2     2     3 1   
     3     2     4 1   
     4     4     5 1   
     5     4    23 1   
     6     4    24 1   
     7     5     6 1   
     8     5    25 1   
     9     5    26 1   
    10     6     7 1   
    11     6    27 1   
    12     6    28 1   
    13     7     8 1   
    14     7    29 1   
    15     7    30 1   
    16     8     9 1   
    17     8    31 1   
    18     8    32 1   
    19     9    10 1   
    20     9    33 1   
    21     9    34 1   
    22    10    11 1   
    23    10    35 1   
    24    10    36 1   
    25    11    12 1   
    26    11    37 1   
    27    11    38 1   
    28    12    13 1   
    29    12    39 1   
    30    12    40 1   
    31    13    14 1   
    32    13    41 1   
    33    13    42 1   
    34    14    15 1   
    35    14    43 1   
    36    14    44 1   
    37    15    16 1   
    38    15    45 1   
    39    15    46 1   
    40    16    17 1   
    41    16    47 1   
    42    16    48 1   
    43    17    18 1   
    44    17    49 1   
    45    17    50 1   
    46    18    19 1   
    47    18    51 1   
    48    18    52 1   
    49    19    20 1   
    50    19    53 1   
    51    19    54 1   
    52    20    21 1   
    53    20    55 1   
    54    20    56 1   
    55    21    22 1   
    56    21    57 1   
    57    21    58 1   
    58    22    59 1   
    59    22    60 1   
    60    22    61 1   
@<TRIPOS>SUBSTRUCTURE
     1 DCR         1 TEMP              0 ****  ****    0 ROOT
