@<TRIPOS>MOLECULE
DCU
   80    83     1     0     0
SMALL
abcg2


@<TRIPOS>ATOM
      1 C2           1.6870    -0.2400     1.2320 c3         1 DCU       0.029600
      2 C3           0.5620    -0.3170     0.2100 c3         1 DCU      -0.095400
      3 C4          -0.7960    -0.2020     0.8900 c3         1 DCU      -0.074400
      4 C5          -1.9480    -0.2200    -0.1070 c3         1 DCU      -0.073400
      5 C6          -3.3130    -0.1370     0.5640 c3         1 DCU      -0.074400
      6 C7          -4.4710    -0.1440    -0.4270 c3         1 DCU      -0.073400
      7 C8          -5.8320    -0.0810     0.2530 c3         1 DCU      -0.074400
      8 C9          -6.9950    -0.0870    -0.7310 c3         1 DCU      -0.074400
      9 C10         -8.3450    -0.0360    -0.0180 c3         1 DCU      -0.100400
     10 C11         -9.4690    -0.0370    -1.0350 c3         1 DCU       0.100600
     11 N12        -10.8640    -0.0070    -0.4620 n4         1 DCU      -0.496000
     12 C13        -11.0760     1.2140     0.3620 c3         1 DCU       0.074567
     13 C14        -11.1260    -1.2170     0.3640 c3         1 DCU       0.074567
     14 C15        -11.8240     0.0120    -1.5990 c3         1 DCU       0.074567
     15 C16          6.8090    -0.8520    -1.1270 ca         1 DCU      -0.085000
     16 C17          5.5320    -0.7640    -0.5390 ca         1 DCU       0.021000
     17 C18          5.0230     0.5280    -0.2860 ca         1 DCU      -0.070000
     18 C19          5.7680     1.6790    -0.6160 ca         1 DCU      -0.164000
     19 C20          7.0210     1.5710    -1.1860 ca         1 DCU       0.323000
     20 C21          7.5250     0.2690    -1.4360 ca         1 DCU      -0.088000
     21 C22          3.7430     0.6490     0.3070 cp         1 DCU       0.118000
     22 N23          3.0190    -0.4180     0.6210 na         1 DCU       0.047300
     23 C24          3.4620    -1.7180     0.3720 ca         1 DCU       0.040700
     24 C25          4.7360    -1.8970    -0.2010 ca         1 DCU      -0.077000
     25 C26          2.6570    -2.8170     0.6870 ca         1 DCU      -0.245000
     26 C27          3.1020    -4.1140     0.4610 ca         1 DCU       0.376000
     27 C28          4.3860    -4.2970    -0.1020 ca         1 DCU      -0.150000
     28 C29          5.1630    -3.2240    -0.4210 ca         1 DCU      -0.030000
     29 C30          3.2070     2.0010     0.5940 cp         1 DCU      -0.135000
     30 C31          2.4250     2.6590    -0.3500 ca         1 DCU      -0.081000
     31 C32          1.9530     3.9360    -0.0800 ca         1 DCU      -0.101500
     32 C33          2.2650     4.5560     1.1210 ca         1 DCU      -0.071000
     33 C34          3.0590     3.9030     2.0550 ca         1 DCU      -0.101500
     34 C35          3.5350     2.6270     1.7930 ca         1 DCU      -0.081000
     35 N37          2.3510    -5.1910     0.8050 nv         1 DCU      -1.076000
     36 H21A         1.6720     0.7220     1.7350 h1         1 DCU       0.089700
     37 H22          1.5760    -0.9860     2.0150 h1         1 DCU       0.089700
     38 H31A         0.6140    -1.2520    -0.3540 hc         1 DCU       0.059200
     39 H32A         0.6800     0.4900    -0.5170 hc         1 DCU       0.059200
     40 H41         -0.8360     0.7210     1.4780 hc         1 DCU       0.047700
     41 H42         -0.9180    -1.0240     1.6030 hc         1 DCU       0.047700
     42 H51         -1.8930    -1.1340    -0.7080 hc         1 DCU       0.044700
     43 H52         -1.8330     0.6130    -0.8080 hc         1 DCU       0.044700
     44 H61         -3.3640     0.7720     1.1740 hc         1 DCU       0.043700
     45 H62         -3.4270    -0.9760     1.2590 hc         1 DCU       0.043700
     46 H71         -4.4140    -1.0470    -1.0460 hc         1 DCU       0.044700
     47 H72         -4.3660     0.7020    -1.1150 hc         1 DCU       0.044700
     48 H81         -5.8870     0.8200     0.8740 hc         1 DCU       0.046200
     49 H82         -5.9340    -0.9290     0.9380 hc         1 DCU       0.046200
     50 H91         -6.9430    -0.9850    -1.3550 hc         1 DCU       0.052700
     51 H92         -6.9050     0.7670    -1.4100 hc         1 DCU       0.052700
     52 H101        -8.3820     0.8620     0.6020 hc         1 DCU       0.063700
     53 H102        -8.4220    -0.8960     0.6500 hc         1 DCU       0.063700
     54 H111        -9.4200    -0.9290    -1.6600 hx         1 DCU       0.093700
     55 H112        -9.3930     0.8330    -1.6890 hx         1 DCU       0.093700
     56 H131       -10.4400     1.1830     1.2420 hx         1 DCU       0.098367
     57 H132       -10.8430     2.0920    -0.2340 hx         1 DCU       0.098367
     58 H133       -12.1160     1.2510     0.6740 hx         1 DCU       0.098367
     59 H141       -12.1610    -1.2000     0.6940 hx         1 DCU       0.098367
     60 H142       -10.9510    -2.1050    -0.2380 hx         1 DCU       0.098367
     61 H143       -10.4730    -1.2230     1.2310 hx         1 DCU       0.098367
     62 H151       -11.6530     0.9020    -2.1980 hx         1 DCU       0.098367
     63 H152       -11.6730    -0.8750    -2.2090 hx         1 DCU       0.098367
     64 H153       -12.8380     0.0200    -1.2080 hx         1 DCU       0.098367
     65 H16          7.2500    -1.8140    -1.3470 ha         1 DCU       0.137000
     66 H19          5.3590     2.6610    -0.4220 ha         1 DCU       0.138000
     67 H21          8.5040     0.1620    -1.8880 ha         1 DCU       0.140000
     68 H26          1.6700    -2.6950     1.1040 ha         1 DCU       0.129000
     69 H28          4.7520    -5.3000    -0.2840 ha         1 DCU       0.143000
     70 H29          6.1350    -3.4110    -0.8530 ha         1 DCU       0.138000
     71 H31          2.1940     2.1850    -1.2950 ha         1 DCU       0.128500
     72 H32          1.3440     4.4450    -0.8150 ha         1 DCU       0.137000
     73 H33          1.8960     5.5520     1.3270 ha         1 DCU       0.137000
     74 H34          3.3100     4.3860     2.9900 ha         1 DCU       0.137000
     75 H35          4.1550     2.1170     2.5190 ha         1 DCU       0.128500
     76 H361         8.5180     2.5490    -2.1540 hn         1 DCU       0.478500
     77 H362         7.3270     3.5530    -1.5220 hn         1 DCU       0.478500
     78 H371         1.3690    -5.0570     0.9850 hn         1 DCU       0.486500
     79 H372         2.5810    -6.0810     0.3970 hn         1 DCU       0.486500
     80 N36          7.7930     2.6620    -1.4650 nv         1 DCU      -1.068000
@<TRIPOS>BOND
     1     1     2 1   
     2     1    22 1   
     3     1    36 1   
     4     1    37 1   
     5     2     3 1   
     6     2    38 1   
     7     2    39 1   
     8     3     4 1   
     9     3    40 1   
    10     3    41 1   
    11     4     5 1   
    12     4    42 1   
    13     4    43 1   
    14     5     6 1   
    15     5    44 1   
    16     5    45 1   
    17     6     7 1   
    18     6    46 1   
    19     6    47 1   
    20     7     8 1   
    21     7    48 1   
    22     7    49 1   
    23     8     9 1   
    24     8    50 1   
    25     8    51 1   
    26     9    10 1   
    27     9    52 1   
    28     9    53 1   
    29    10    11 1   
    30    10    54 1   
    31    10    55 1   
    32    11    12 1   
    33    11    13 1   
    34    11    14 1   
    35    12    56 1   
    36    12    57 1   
    37    12    58 1   
    38    13    59 1   
    39    13    60 1   
    40    13    61 1   
    41    14    62 1   
    42    14    63 1   
    43    14    64 1   
    44    15    16 ar  
    45    15    20 ar  
    46    15    65 1   
    47    16    17 ar  
    48    16    24 ar  
    49    17    18 ar  
    50    17    21 ar  
    51    18    19 ar  
    52    18    66 1   
    53    19    20 ar  
    54    19    80 1   
    55    20    67 1   
    56    21    22 1   
    57    21    29 1   
    58    22    23 2   
    59    23    24 ar  
    60    23    25 ar  
    61    24    28 ar  
    62    25    26 ar  
    63    25    68 1   
    64    26    27 ar  
    65    26    35 1   
    66    27    28 ar  
    67    27    69 1   
    68    28    70 1   
    69    29    30 ar  
    70    29    34 ar  
    71    30    31 ar  
    72    30    71 1   
    73    31    32 ar  
    74    31    72 1   
    75    32    33 ar  
    76    32    73 1   
    77    33    34 ar  
    78    33    74 1   
    79    34    75 1   
    80    35    78 1   
    81    35    79 1   
    82    76    80 1   
    83    77    80 1   
@<TRIPOS>SUBSTRUCTURE
     1 DCU         1 TEMP              0 ****  ****    0 ROOT
