@<TRIPOS>MOLECULE
DCU
   80    83     1     0     0
SMALL
No Charge or Current Charge


@<TRIPOS>ATOM
      1 C2           1.7530    -0.5300     1.0840 c3         1 DCU       0.029600
      2 C3           0.5520    -0.4910     0.1090 c3         1 DCU      -0.095400
      3 C4          -0.8060    -0.3980     0.8370 c3         1 DCU      -0.074400
      4 C5          -2.0060    -0.3410    -0.1320 c3         1 DCU      -0.073400
      5 C6          -3.3650    -0.2440     0.5950 c3         1 DCU      -0.074400
      6 C7          -4.5660    -0.1850    -0.3740 c3         1 DCU      -0.073400
      7 C8          -5.9250    -0.0880     0.3530 c3         1 DCU      -0.074400
      8 C9          -7.1260    -0.0290    -0.6160 c3         1 DCU      -0.074400
      9 C10         -8.4830     0.0680     0.1110 c3         1 DCU      -0.100400
     10 C11         -9.6720     0.1260    -0.8710 c3         1 DCU       0.100600
     11 N12        -11.0860     0.2240    -0.2750 n4         1 DCU      -0.496000
     12 C13        -11.2290     1.5040     0.5630 c3         1 DCU       0.074567
     13 C14        -11.3850    -1.0010     0.6040 c3         1 DCU       0.074567
     14 C15        -12.1030     0.2690    -1.4240 c3         1 DCU       0.074567
     15 C16          7.2490    -0.7060    -0.4590 ca         1 DCU      -0.085000
     16 C17          5.8490    -0.7110    -0.2120 ca         1 DCU       0.021000
     17 C18          5.1810     0.5400    -0.1300 ca         1 DCU      -0.070000
     18 C19          5.9110     1.7400    -0.3200 ca         1 DCU      -0.164000
     19 C20          7.2860     1.7220    -0.5670 ca         1 DCU       0.323000
     20 C21          7.9530     0.4970    -0.6300 ca         1 DCU      -0.088000
     21 C22          3.7870     0.5940     0.1390 cp         1 DCU       0.118000
     22 N23          3.0740    -0.6190     0.4070 na         1 DCU       0.047300
     23 C24          3.7010    -1.8620     0.1930 ca         1 DCU       0.040700
     24 C25          5.0980    -1.9200    -0.0810 ca         1 DCU      -0.077000
     25 C26          2.9540    -3.0670     0.2490 ca         1 DCU      -0.245000
     26 C27          3.5660    -4.3060     0.0750 ca         1 DCU       0.376000
     27 C28          4.9360    -4.3740    -0.1610 ca         1 DCU      -0.150000
     28 C29          5.6970    -3.1990    -0.2440 ca         1 DCU      -0.030000
     29 C30          3.0760     1.9100     0.1820 cp         1 DCU      -0.135000
     30 C31          2.4270     2.4170    -0.9690 ca         1 DCU      -0.081000
     31 C32          1.7590     3.6530    -0.9320 ca         1 DCU      -0.101500
     32 C33          1.7360     4.4040     0.2560 ca         1 DCU      -0.071000
     33 C34          2.3850     3.9210     1.4050 ca         1 DCU      -0.101500
     34 C35          3.0520     2.6850     1.3670 ca         1 DCU      -0.081000
     35 N37          2.8180    -5.4460     0.1420 nv         1 DCU      -1.076000
     36 H21A         1.7290     0.3670     1.7140 h1         1 DCU       0.089700
     37 H22          1.6430    -1.3740     1.7760 h1         1 DCU       0.089700
     38 H31A         0.5620    -1.3840    -0.5270 hc         1 DCU       0.059200
     39 H32A         0.6550     0.3700    -0.5610 hc         1 DCU       0.059200
     40 H41         -0.8130     0.4980     1.4720 hc         1 DCU       0.047700
     41 H42         -0.9190    -1.2630     1.5020 hc         1 DCU       0.047700
     42 H51         -2.0000    -1.2360    -0.7670 hc         1 DCU       0.044700
     43 H52         -1.8920     0.5240    -0.7980 hc         1 DCU       0.044700
     44 H61         -3.3710     0.6510     1.2300 hc         1 DCU       0.043700
     45 H62         -3.4810    -1.1090     1.2600 hc         1 DCU       0.043700
     46 H71         -4.5610    -1.0800    -1.0090 hc         1 DCU       0.044700
     47 H72         -4.4510     0.6800    -1.0390 hc         1 DCU       0.044700
     48 H81         -5.9310     0.8070     0.9880 hc         1 DCU       0.046200
     49 H82         -6.0410    -0.9530     1.0180 hc         1 DCU       0.046200
     50 H91         -7.1210    -0.9240    -1.2520 hc         1 DCU       0.052700
     51 H92         -7.0110     0.8370    -1.2810 hc         1 DCU       0.052700
     52 H101        -8.4880     0.9630     0.7440 hc         1 DCU       0.063700
     53 H102        -8.5980    -0.7980     0.7730 hc         1 DCU       0.063700
     54 H111        -9.6450    -0.7690    -1.4970 hx         1 DCU       0.093700
     55 H112        -9.5360     0.9900    -1.5260 hx         1 DCU       0.093700
     56 H131       -10.5310     1.4680     1.4020 hx         1 DCU       0.098367
     57 H132       -11.0070     2.3720    -0.0620 hx         1 DCU       0.098367
     58 H133       -12.2510     1.5760     0.9410 hx         1 DCU       0.098367
     59 H141       -12.4070    -0.9330     0.9820 hx         1 DCU       0.098367
     60 H142       -11.2740    -1.9090     0.0070 hx         1 DCU       0.098367
     61 H143       -10.6870    -1.0240     1.4420 hx         1 DCU       0.098367
     62 H151       -11.9030     1.1410    -2.0500 hx         1 DCU       0.098367
     63 H152       -12.0140    -0.6400    -2.0210 hx         1 DCU       0.098367
     64 H153       -13.1120     0.3390    -1.0110 hx         1 DCU       0.098367
     65 H16          7.8330    -1.6150    -0.5230 ha         1 DCU       0.137000
     66 H19          5.4170     2.7050    -0.2690 ha         1 DCU       0.138000
     67 H21          9.0230     0.4710    -0.8160 ha         1 DCU       0.140000
     68 H26          1.8850    -3.0590     0.4280 ha         1 DCU       0.129000
     69 H28          5.4180    -5.3380    -0.2940 ha         1 DCU       0.143000
     70 H29          6.7520    -3.3270    -0.4530 ha         1 DCU       0.138000
     71 H31          2.4430     1.8430    -1.8930 ha         1 DCU       0.128500
     72 H32          1.2600     4.0280    -1.8230 ha         1 DCU       0.137000
     73 H33          1.2190     5.3610     0.2840 ha         1 DCU       0.137000
     74 H34          2.3710     4.5040     2.3230 ha         1 DCU       0.137000
     75 H35          3.5540     2.3190     2.2610 ha         1 DCU       0.128500
     76 H361         8.9320     2.8850    -1.0710 hn         1 DCU       0.478500
     77 H362         7.4560     3.7730    -0.8430 hn         1 DCU       0.478500
     78 H371         1.8030    -5.3770     0.1320 hn         1 DCU       0.486500
     79 H372         3.2200    -6.3310    -0.1620 hn         1 DCU       0.486500
     80 N36          7.9680     2.8990    -0.7410 nv         1 DCU      -1.068000
@<TRIPOS>BOND
     1     1     2 1   
     2     1    22 1   
     3     1    36 1   
     4     1    37 1   
     5     2     3 1   
     6     2    38 1   
     7     2    39 1   
     8     3     4 1   
     9     3    40 1   
    10     3    41 1   
    11     4     5 1   
    12     4    42 1   
    13     4    43 1   
    14     5     6 1   
    15     5    44 1   
    16     5    45 1   
    17     6     7 1   
    18     6    46 1   
    19     6    47 1   
    20     7     8 1   
    21     7    48 1   
    22     7    49 1   
    23     8     9 1   
    24     8    50 1   
    25     8    51 1   
    26     9    10 1   
    27     9    52 1   
    28     9    53 1   
    29    10    11 1   
    30    10    54 1   
    31    10    55 1   
    32    11    12 1   
    33    11    13 1   
    34    11    14 1   
    35    12    56 1   
    36    12    57 1   
    37    12    58 1   
    38    13    59 1   
    39    13    60 1   
    40    13    61 1   
    41    14    62 1   
    42    14    63 1   
    43    14    64 1   
    44    15    16 ar  
    45    15    20 ar  
    46    15    65 1   
    47    16    17 ar  
    48    16    24 ar  
    49    17    18 ar  
    50    17    21 ar  
    51    18    19 ar  
    52    18    66 1   
    53    19    20 ar  
    54    19    80 1   
    55    20    67 1   
    56    21    22 1   
    57    21    29 1   
    58    22    23 2   
    59    23    24 ar  
    60    23    25 ar  
    61    24    28 ar  
    62    25    26 ar  
    63    25    68 1   
    64    26    27 ar  
    65    26    35 1   
    66    27    28 ar  
    67    27    69 1   
    68    28    70 1   
    69    29    30 ar  
    70    29    34 ar  
    71    30    31 ar  
    72    30    71 1   
    73    31    32 ar  
    74    31    72 1   
    75    32    33 ar  
    76    32    73 1   
    77    33    34 ar  
    78    33    74 1   
    79    34    75 1   
    80    35    78 1   
    81    35    79 1   
    82    76    80 1   
    83    77    80 1   
@<TRIPOS>SUBSTRUCTURE
     1 DCU         1 TEMP              0 ****  ****    0 ROOT
