@<TRIPOS>MOLECULE
DCV
   32    32     1     0     0
SMALL
No Charge or Current Charge


@<TRIPOS>ATOM
      1 C1           4.3030    -1.9780     0.6110 c          1 DCV       0.599100
      2 N1           2.9810    -1.8890     0.0900 n          1 DCV      -0.275300
      3 O1           4.6590    -1.3070     1.5730 o          1 DCV      -0.592100
      4 Cl1         -3.3480    -1.1910    -1.8750 cl         1 DCV      -0.258000
      5 C2           1.9440    -0.9940     0.6500 c3         1 DCV       0.088000
      6 O2           2.5740    -2.6800    -1.0470 oh         1 DCV      -0.441100
      7 Cl2         -4.7650    -1.3760     1.0340 cl         1 DCV      -0.273000
      8 C3           1.7810     0.3150    -0.1550 c3         1 DCV      -0.054400
      9 C4           0.7150     1.2810     0.4340 c3         1 DCV      -0.308400
     10 C5           5.2800    -2.9420    -0.0710 c3         1 DCV      -0.168100
     11 PA1          0.6570     2.8980    -0.4620 p5         1 DCV       1.261500
     12 CAC         -0.6620     0.6320     0.5610 ca         1 DCV       0.068700
     13 CAD         -1.2860     0.5430     1.8210 ca         1 DCV      -0.118000
     14 CAE         -1.3150     0.0890    -0.5650 ca         1 DCV      -0.092000
     15 CAF         -2.5430    -0.0720     1.9560 ca         1 DCV      -0.108000
     16 CAG         -2.5710    -0.5260    -0.4360 ca         1 DCV       0.128000
     17 CAH         -3.1890    -0.6080     0.8300 ca         1 DCV       0.058000
     18 OP1         -0.4170     3.7410     0.1370 o          1 DCV      -0.906167
     19 OP2          1.9770     3.5730    -0.3080 o          1 DCV      -0.906167
     20 OP3          0.3730     2.6490    -1.9040 o          1 DCV      -0.906167
     21 H2           0.9890    -1.5360     0.6600 h1         1 DCV       0.047200
     22 H2A          2.1900    -0.7520     1.6920 h1         1 DCV       0.047200
     23 HO2          2.2130    -3.5130    -0.6680 ho         1 DCV       0.423000
     24 H3           2.7510     0.8260    -0.1840 hc         1 DCV       0.067700
     25 H3A          1.5300     0.0680    -1.1930 hc         1 DCV       0.067700
     26 H4           1.0640     1.5750     1.4300 hc         1 DCV       0.044700
     27 H5           4.8470    -3.9480    -0.0770 hc         1 DCV       0.048367
     28 H5A          5.3330    -2.7020    -1.1390 hc         1 DCV       0.048367
     29 H5B          6.2730    -2.9350     0.3920 hc         1 DCV       0.048367
     30 HAD         -0.7950     0.9510     2.7020 ha         1 DCV       0.113000
     31 HAE         -0.8510     0.1470    -1.5450 ha         1 DCV       0.158000
     32 HAF         -3.0140    -0.1340     2.9330 ha         1 DCV       0.091000
@<TRIPOS>BOND
     1     1     2 1   
     2     1     3 2   
     3     1    10 1   
     4     2     5 1   
     5     2     6 1   
     6     4    16 1   
     7     5     8 1   
     8     5    21 1   
     9     5    22 1   
    10     6    23 1   
    11     7    17 1   
    12     8     9 1   
    13     8    24 1   
    14     8    25 1   
    15     9    11 1   
    16     9    12 1   
    17     9    26 1   
    18    10    27 1   
    19    10    28 1   
    20    10    29 1   
    21    11    18 1   
    22    11    19 1   
    23    11    20 1   
    24    12    13 ar  
    25    12    14 ar  
    26    13    15 ar  
    27    13    30 1   
    28    14    16 ar  
    29    14    31 1   
    30    15    17 ar  
    31    15    32 1   
    32    16    17 ar  
@<TRIPOS>SUBSTRUCTURE
     1 DCV         1 TEMP              0 ****  ****    0 ROOT
