@<TRIPOS>MOLECULE
DCV
   32    32     1     0     0
SMALL
abcg2


@<TRIPOS>ATOM
      1 C1           4.2960    -1.8610     0.4870 c          1 DCV       0.599100
      2 N1           2.9690    -1.9990     0.2590 n          1 DCV      -0.275300
      3 O1           4.7080    -1.0860     1.3400 o          1 DCV      -0.592100
      4 CL1         -3.1490    -1.3520    -1.8380 cl         1 DCV      -0.258000
      5 C2           1.9650    -1.0970     0.7900 c3         1 DCV       0.088000
      6 O2           2.5850    -2.6990    -0.8580 oh         1 DCV      -0.441100
      7 CL2         -4.8710    -1.0520     0.7860 cl         1 DCV      -0.273000
      8 C3           1.7810     0.1670    -0.0430 c3         1 DCV      -0.054400
      9 C4           0.7500     1.1180     0.5560 c3         1 DCV      -0.308400
     10 C5           5.2160    -2.7280    -0.3340 c3         1 DCV      -0.168100
     11 PA1          0.7190     2.7610    -0.3850 p5         1 DCV       1.261500
     12 CAC         -0.6290     0.5560     0.6170 ca         1 DCV       0.068700
     13 CAD         -1.4170     0.6900     1.7600 ca         1 DCV      -0.118000
     14 CAE         -1.2020    -0.0720    -0.4900 ca         1 DCV      -0.092000
     15 CAF         -2.7110     0.2010     1.8140 ca         1 DCV      -0.108000
     16 CAG         -2.4930    -0.5700    -0.4410 ca         1 DCV       0.128000
     17 CAH         -3.2590    -0.4350     0.7110 ca         1 DCV       0.058000
     18 OP1         -0.3100     3.6110     0.3630 o          1 DCV      -0.906167
     19 OP2          2.1580     3.2800    -0.2700 o          1 DCV      -0.906167
     20 OP3          0.3100     2.3800    -1.8120 o          1 DCV      -0.906167
     21 H2           1.0300    -1.6570     0.8650 h1         1 DCV       0.047200
     22 H2A          2.2560    -0.8380     1.8080 h1         1 DCV       0.047200
     23 HO2          2.2490    -3.5470    -0.5380 ho         1 DCV       0.423000
     24 H3           2.7330     0.6980    -0.1040 hc         1 DCV       0.067700
     25 H3A          1.5090    -0.0970    -1.0670 hc         1 DCV       0.067700
     26 H4           1.0610     1.3540     1.5810 hc         1 DCV       0.044700
     27 H5           4.9740    -3.7860    -0.2350 hc         1 DCV       0.048367
     28 H5A          5.1540    -2.4790    -1.3940 hc         1 DCV       0.048367
     29 H5B          6.2380    -2.5710    -0.0000 hc         1 DCV       0.048367
     30 HAD         -1.0050     1.1740     2.6370 ha         1 DCV       0.113000
     31 HAE         -0.6340    -0.1700    -1.4040 ha         1 DCV       0.158000
     32 HAF         -3.3000     0.3100     2.7150 ha         1 DCV       0.091000
@<TRIPOS>BOND
     1     1     2 1   
     2     1     3 2   
     3     1    10 1   
     4     2     5 1   
     5     2     6 1   
     6     4    16 1   
     7     5     8 1   
     8     5    21 1   
     9     5    22 1   
    10     6    23 1   
    11     7    17 1   
    12     8     9 1   
    13     8    24 1   
    14     8    25 1   
    15     9    11 1   
    16     9    12 1   
    17     9    26 1   
    18    10    27 1   
    19    10    28 1   
    20    10    29 1   
    21    11    18 1   
    22    11    19 1   
    23    11    20 1   
    24    12    13 ar  
    25    12    14 ar  
    26    13    15 ar  
    27    13    30 1   
    28    14    16 ar  
    29    14    31 1   
    30    15    17 ar  
    31    15    32 1   
    32    16    17 ar  
@<TRIPOS>SUBSTRUCTURE
     1 DCV         1 TEMP              0 ****  ****    0 ROOT
