@<TRIPOS>MOLECULE
DCW
   40    41     1     0     0
SMALL
No Charge or Current Charge


@<TRIPOS>ATOM
      1 N1           1.1470    -0.1200    -0.4240 ns         1 DCW      -0.516400
      2 O1           0.0080    -0.0060     1.5500 o          1 DCW      -0.644100
      3 C1           0.0130     0.0000     0.3310 c          1 DCW       0.645100
      4 C2           2.5090    -0.2500     0.1040 c6         1 DCW       0.121200
      5 N2          -1.1130     0.1270    -0.4330 ns         1 DCW      -0.516400
      6 C3           3.4210    -0.9440    -0.9410 c6         1 DCW      -0.092150
      7 C7           3.0900     1.1440     0.4640 c6         1 DCW      -0.092150
      8 C4           4.8780    -1.0680    -0.4280 c6         1 DCW      -0.071150
      9 C5           5.4540     0.3170    -0.0440 c6         1 DCW      -0.077400
     10 C6           4.5450     1.0340     0.9840 c6         1 DCW      -0.071150
     11 C8          -2.4800     0.2520     0.0850 c6         1 DCW       0.121200
     12 C9          -3.3830     0.9560    -0.9620 c6         1 DCW      -0.092150
     13 C13         -3.0640    -1.1450     0.4260 c6         1 DCW      -0.092150
     14 C10         -4.8440     1.0750    -0.4600 c6         1 DCW      -0.071150
     15 C11         -5.4230    -0.3130    -0.0950 c6         1 DCW      -0.077400
     16 C12         -4.5240    -1.0390     0.9350 c6         1 DCW      -0.071150
     17 H1           1.0290    -0.1040    -1.4280 hn         1 DCW       0.295500
     18 H2           2.4750    -0.8710     1.0130 h1         1 DCW       0.079700
     19 HA          -0.9860     0.1210    -1.4360 hn         1 DCW       0.295500
     20 H31C         3.0270    -1.9430    -1.1720 hc         1 DCW       0.044200
     21 H32C         3.4110    -0.3780    -1.8830 hc         1 DCW       0.044200
     22 H71C         3.0630     1.8000    -0.4180 hc         1 DCW       0.044200
     23 H72C         2.4640     1.6240     1.2280 hc         1 DCW       0.044200
     24 H8          -2.4540     0.8650     0.9990 h1         1 DCW       0.079700
     25 H41C         4.9070    -1.7360     0.4440 hc         1 DCW       0.042450
     26 H42C         5.5070    -1.5330    -1.1990 hc         1 DCW       0.042450
     27 H61C         4.9420     2.0360     1.1980 hc         1 DCW       0.042450
     28 H62C         4.5570     0.4840     1.9360 hc         1 DCW       0.042450
     29 H51C         6.4650     0.1990     0.3690 hc         1 DCW       0.039200
     30 H52C         5.5550     0.9380    -0.9450 hc         1 DCW       0.039200
     31 H91C        -2.9870     1.9580    -1.1800 hc         1 DCW       0.044200
     32 H92C        -3.3640     0.3990    -1.9090 hc         1 DCW       0.044200
     33 H131        -3.0290    -1.7920    -0.4610 hc         1 DCW       0.044200
     34 H132        -2.4450    -1.6320     1.1910 hc         1 DCW       0.044200
     35 H101        -4.8810     1.7360     0.4170 hc         1 DCW       0.042450
     36 H102        -5.4660     1.5480    -1.2330 hc         1 DCW       0.042450
     37 H121        -4.9230    -2.0430     1.1350 hc         1 DCW       0.042450
     38 H122        -4.5440    -0.4990     1.8910 hc         1 DCW       0.042450
     39 H111        -6.4380    -0.1990     0.3100 hc         1 DCW       0.039200
     40 H112        -5.5160    -0.9250    -1.0020 hc         1 DCW       0.039200
@<TRIPOS>BOND
     1     1     3 1   
     2     1     4 1   
     3     1    17 1   
     4     2     3 2   
     5     3     5 1   
     6     4     6 1   
     7     4     7 1   
     8     4    18 1   
     9     5    11 1   
    10     5    19 1   
    11     6     8 1   
    12     6    20 1   
    13     6    21 1   
    14     7    10 1   
    15     7    22 1   
    16     7    23 1   
    17     8     9 1   
    18     8    25 1   
    19     8    26 1   
    20     9    10 1   
    21     9    29 1   
    22     9    30 1   
    23    10    27 1   
    24    10    28 1   
    25    11    12 1   
    26    11    13 1   
    27    11    24 1   
    28    12    14 1   
    29    12    31 1   
    30    12    32 1   
    31    13    16 1   
    32    13    33 1   
    33    13    34 1   
    34    14    15 1   
    35    14    35 1   
    36    14    36 1   
    37    15    16 1   
    38    15    39 1   
    39    15    40 1   
    40    16    37 1   
    41    16    38 1   
@<TRIPOS>SUBSTRUCTURE
     1 DCW         1 TEMP              0 ****  ****    0 ROOT
