@<TRIPOS>MOLECULE
DCW
   40    41     1     0     0
SMALL
bcc


@<TRIPOS>ATOM
      1 N1           1.1430    -0.1920    -0.5550 ns         1 DCW      -0.583400
      2 O1           0.0080     0.0040     1.4040 o          1 DCW      -0.644100
      3 C1           0.0130     0.0110     0.1750 c          1 DCW       0.779100
      4 C2           2.4620    -0.2410     0.0410 c6         1 DCW       0.121200
      5 N2          -1.1100     0.2220    -0.5630 ns         1 DCW      -0.583400
      6 C3           3.4090    -0.9980    -0.8860 c6         1 DCW      -0.092150
      7 C7           3.0170     1.1470     0.3670 c6         1 DCW      -0.092150
      8 C4           4.8130    -1.0860    -0.2950 c6         1 DCW      -0.071150
      9 C5           5.3650     0.2950     0.0410 c6         1 DCW      -0.077400
     10 C6           4.4190     1.0570     0.9630 c6         1 DCW      -0.071150
     11 C8          -2.4350     0.2550     0.0230 c6         1 DCW       0.121200
     12 C9          -3.3800     1.0120    -0.9060 c6         1 DCW      -0.092150
     13 C13         -2.9810    -1.1410     0.3320 c6         1 DCW      -0.092150
     14 C10         -4.7900     1.0820    -0.3280 c6         1 DCW      -0.071150
     15 C11         -5.3330    -0.3070    -0.0110 c6         1 DCW      -0.077400
     16 C12         -4.3900    -1.0690     0.9140 c6         1 DCW      -0.071150
     17 H1           1.1080    -0.0030    -1.5460 hn         1 DCW       0.295500
     18 H2           2.3820    -0.8060     0.9750 h1         1 DCW       0.079700
     19 HA          -1.0650     0.0420    -1.5540 hn         1 DCW       0.295500
     20 H31C         3.0130    -1.9970    -1.0830 hc         1 DCW       0.044200
     21 H32C         3.4590    -0.4820    -1.8530 hc         1 DCW       0.044200
     22 H71C         3.0410     1.7440    -0.5510 hc         1 DCW       0.044200
     23 H72C         2.3430     1.6570     1.0590 hc         1 DCW       0.044200
     24 H8          -2.3680     0.8120     0.9620 h1         1 DCW       0.079700
     25 H41C         4.7860    -1.6990     0.6120 hc         1 DCW       0.042450
     26 H42C         5.4760    -1.6010    -0.9940 hc         1 DCW       0.042450
     27 H61C         4.8060     2.0590     1.1630 hc         1 DCW       0.042450
     28 H62C         4.3670     0.5480     1.9320 hc         1 DCW       0.042450
     29 H51C         6.3520     0.2040     0.5020 hc         1 DCW       0.039200
     30 H52C         5.5050     0.8630    -0.8850 hc         1 DCW       0.039200
     31 H91C        -2.9900     2.0170    -1.0880 hc         1 DCW       0.044200
     32 H92C        -3.4160     0.5070    -1.8790 hc         1 DCW       0.044200
     33 H131        -2.9900    -1.7320    -0.5910 hc         1 DCW       0.044200
     34 H132        -2.3090    -1.6500     1.0270 hc         1 DCW       0.044200
     35 H101        -4.7760     1.6860     0.5850 hc         1 DCW       0.042450
     36 H102        -5.4500     1.5980    -1.0300 hc         1 DCW       0.042450
     37 H121        -4.7690    -2.0760     1.1000 hc         1 DCW       0.042450
     38 H122        -4.3520    -0.5690     1.8870 hc         1 DCW       0.042450
     39 H111        -6.3260    -0.2310     0.4380 hc         1 DCW       0.039200
     40 H112        -5.4540    -0.8680    -0.9450 hc         1 DCW       0.039200
@<TRIPOS>BOND
     1     1     3 1   
     2     1     4 1   
     3     1    17 1   
     4     2     3 2   
     5     3     5 1   
     6     4     6 1   
     7     4     7 1   
     8     4    18 1   
     9     5    11 1   
    10     5    19 1   
    11     6     8 1   
    12     6    20 1   
    13     6    21 1   
    14     7    10 1   
    15     7    22 1   
    16     7    23 1   
    17     8     9 1   
    18     8    25 1   
    19     8    26 1   
    20     9    10 1   
    21     9    29 1   
    22     9    30 1   
    23    10    27 1   
    24    10    28 1   
    25    11    12 1   
    26    11    13 1   
    27    11    24 1   
    28    12    14 1   
    29    12    31 1   
    30    12    32 1   
    31    13    16 1   
    32    13    33 1   
    33    13    34 1   
    34    14    15 1   
    35    14    35 1   
    36    14    36 1   
    37    15    16 1   
    38    15    39 1   
    39    15    40 1   
    40    16    37 1   
    41    16    38 1   
@<TRIPOS>SUBSTRUCTURE
     1 DCW         1 TEMP              0 ****  ****    0 ROOT
