@<TRIPOS>MOLECULE
DCX
   41    40     1     0     0
SMALL
No Charge or Current Charge


@<TRIPOS>ATOM
      1 C3           6.0380    -1.1320     0.2010 c3         1 DCX      -0.468100
      2 O4           4.9000     0.7630    -1.4750 o          1 DCX      -0.540000
      3 C6           1.8880     0.1550    -0.0920 c3         1 DCX      -0.046400
      4 C14         -8.4090     0.4810    -0.0810 c3         1 DCX      -0.088100
      5 C13         -7.1500    -0.3870     0.1100 c3         1 DCX      -0.074400
      6 C12         -5.8360     0.4010    -0.0840 c3         1 DCX      -0.075400
      7 C11         -4.5750    -0.4690     0.1070 c3         1 DCX      -0.074400
      8 C10         -3.2610     0.3200    -0.0870 c3         1 DCX      -0.074400
      9 C9          -2.0000    -0.5510     0.1050 c3         1 DCX      -0.073400
     10 C8          -0.6860     0.2380    -0.0900 c3         1 DCX      -0.075400
     11 C7           0.5750    -0.6320     0.1020 c3         1 DCX      -0.071400
     12 C4           3.1450    -0.7280     0.1040 c3         1 DCX      -0.437400
     13 P1           4.7570     0.1310    -0.1320 p5         1 DCX       1.248000
     14 C2           4.8950     1.3310     1.2420 c3         1 DCX      -0.468100
     15 H31          7.0270    -0.6650     0.1430 hc         1 DCX       0.077700
     16 H32          5.8840    -1.5490     1.2020 hc         1 DCX       0.077700
     17 H33          5.9600    -1.9270    -0.5470 hc         1 DCX       0.077700
     18 H61          1.9010     0.5910    -1.0990 hc         1 DCX       0.046700
     19 H62          1.9120     0.9910     0.6190 hc         1 DCX       0.046700
     20 H141        -9.3130    -0.1210     0.0670 hc         1 DCX       0.031367
     21 H142        -8.4240     1.3060     0.6410 hc         1 DCX       0.031367
     22 H143        -8.4390     0.9030    -1.0920 hc         1 DCX       0.031367
     23 H131        -7.1670    -0.8230     1.1170 hc         1 DCX       0.036200
     24 H132        -7.1820    -1.2220    -0.6010 hc         1 DCX       0.036200
     25 H121        -5.8240     0.8370    -1.0910 hc         1 DCX       0.037200
     26 H122        -5.8090     1.2360     0.6270 hc         1 DCX       0.037200
     27 H111        -4.5870    -0.9050     1.1140 hc         1 DCX       0.036700
     28 H112        -4.6020    -1.3040    -0.6040 hc         1 DCX       0.036700
     29 H101        -3.2480     0.7550    -1.0940 hc         1 DCX       0.037700
     30 H102        -3.2340     1.1550     0.6240 hc         1 DCX       0.037700
     31 H91         -2.0120    -0.9870     1.1110 hc         1 DCX       0.037200
     32 H92         -2.0270    -1.3860    -0.6070 hc         1 DCX       0.037200
     33 H81         -0.6730     0.6740    -1.0970 hc         1 DCX       0.038700
     34 H82         -0.6590     1.0730     0.6220 hc         1 DCX       0.038700
     35 H71          0.5480    -1.4680    -0.6090 hc         1 DCX       0.038200
     36 H72          0.5630    -1.0690     1.1090 hc         1 DCX       0.038200
     37 H41          3.1600    -1.1500     1.1150 hc         1 DCX       0.071700
     38 H42          3.1370    -1.5610    -0.6070 hc         1 DCX       0.071700
     39 H21          5.9090     1.7450     1.2560 hc         1 DCX       0.077700
     40 H22          4.1700     2.1380     1.0900 hc         1 DCX       0.077700
     41 H23          4.6900     0.8230     2.1900 hc         1 DCX       0.077700
@<TRIPOS>BOND
     1     1    13 1   
     2     1    15 1   
     3     1    16 1   
     4     1    17 1   
     5     2    13 2   
     6     3    11 1   
     7     3    12 1   
     8     3    18 1   
     9     3    19 1   
    10     4     5 1   
    11     4    20 1   
    12     4    21 1   
    13     4    22 1   
    14     5     6 1   
    15     5    23 1   
    16     5    24 1   
    17     6     7 1   
    18     6    25 1   
    19     6    26 1   
    20     7     8 1   
    21     7    27 1   
    22     7    28 1   
    23     8     9 1   
    24     8    29 1   
    25     8    30 1   
    26     9    10 1   
    27     9    31 1   
    28     9    32 1   
    29    10    11 1   
    30    10    33 1   
    31    10    34 1   
    32    11    35 1   
    33    11    36 1   
    34    12    13 1   
    35    12    37 1   
    36    12    38 1   
    37    13    14 1   
    38    14    39 1   
    39    14    40 1   
    40    14    41 1   
@<TRIPOS>SUBSTRUCTURE
     1 DCX         1 TEMP              0 ****  ****    0 ROOT
