@<TRIPOS>MOLECULE
DCX
   41    40     1     0     0
SMALL
abcg2


@<TRIPOS>ATOM
      1 C3           5.9530    -1.0940     0.2060 c3         1 DCX      -0.468100
      2 O4           4.7470     0.7100    -1.5380 o          1 DCX      -0.540000
      3 C6           1.8600     0.1220    -0.0540 c3         1 DCX      -0.046400
      4 C14         -8.3000     0.5050    -0.0850 c3         1 DCX      -0.088100
      5 C13         -7.0690    -0.3760     0.0760 c3         1 DCX      -0.074400
      6 C12         -5.7650     0.3990    -0.0690 c3         1 DCX      -0.075400
      7 C11         -4.5240    -0.4700     0.0930 c3         1 DCX      -0.074400
      8 C10         -3.2210     0.3060    -0.0600 c3         1 DCX      -0.074400
      9 C9          -1.9810    -0.5630     0.1040 c3         1 DCX      -0.073400
     10 C8          -0.6790     0.2120    -0.0570 c3         1 DCX      -0.075400
     11 C7           0.5600    -0.6560     0.1160 c3         1 DCX      -0.071400
     12 C4           3.0910    -0.7570     0.1500 c3         1 DCX      -0.437400
     13 P1           4.6550     0.1190    -0.1540 p5         1 DCX       1.248000
     14 C2           4.7900     1.3570     1.1630 c3         1 DCX      -0.468100
     15 H31          6.9310    -0.6200     0.1360 hc         1 DCX       0.077700
     16 H32          5.8380    -1.5080     1.2080 hc         1 DCX       0.077700
     17 H33          5.9080    -1.9080    -0.5170 hc         1 DCX       0.077700
     18 H61          1.8890     0.5700    -1.0510 hc         1 DCX       0.046700
     19 H62          1.8730     0.9540     0.6580 hc         1 DCX       0.046700
     20 H141        -9.2220    -0.0710     0.0030 hc         1 DCX       0.031367
     21 H142        -8.3270     1.2900     0.6740 hc         1 DCX       0.031367
     22 H143        -8.3090     0.9940    -1.0610 hc         1 DCX       0.031367
     23 H131        -7.0910    -0.8650     1.0550 hc         1 DCX       0.036200
     24 H132        -7.0960    -1.1810    -0.6640 hc         1 DCX       0.036200
     25 H121        -5.7420     0.8860    -1.0510 hc         1 DCX       0.037200
     26 H122        -5.7410     1.2090     0.6690 hc         1 DCX       0.037200
     27 H111        -4.5440    -0.9530     1.0760 hc         1 DCX       0.036700
     28 H112        -4.5500    -1.2810    -0.6430 hc         1 DCX       0.036700
     29 H101        -3.2000     0.7880    -1.0440 hc         1 DCX       0.037700
     30 H102        -3.1950     1.1180     0.6750 hc         1 DCX       0.037700
     31 H91         -1.9990    -1.0390     1.0910 hc         1 DCX       0.037200
     32 H92         -2.0090    -1.3790    -0.6260 hc         1 DCX       0.037200
     33 H81         -0.6580     0.6850    -1.0450 hc         1 DCX       0.038700
     34 H82         -0.6520     1.0310     0.6710 hc         1 DCX       0.038700
     35 H71          0.5350    -1.4790    -0.6080 hc         1 DCX       0.038200
     36 H72          0.5440    -1.1220     1.1070 hc         1 DCX       0.038200
     37 H41          3.1090    -1.1710     1.1630 hc         1 DCX       0.071700
     38 H42          3.0670    -1.6090    -0.5380 hc         1 DCX       0.071700
     39 H21          5.7580     1.8550     1.1020 hc         1 DCX       0.077700
     40 H22          4.0090     2.1080     1.0520 hc         1 DCX       0.077700
     41 H23          4.6970     0.8970     2.1460 hc         1 DCX       0.077700
@<TRIPOS>BOND
     1     1    13 1   
     2     1    15 1   
     3     1    16 1   
     4     1    17 1   
     5     2    13 2   
     6     3    11 1   
     7     3    12 1   
     8     3    18 1   
     9     3    19 1   
    10     4     5 1   
    11     4    20 1   
    12     4    21 1   
    13     4    22 1   
    14     5     6 1   
    15     5    23 1   
    16     5    24 1   
    17     6     7 1   
    18     6    25 1   
    19     6    26 1   
    20     7     8 1   
    21     7    27 1   
    22     7    28 1   
    23     8     9 1   
    24     8    29 1   
    25     8    30 1   
    26     9    10 1   
    27     9    31 1   
    28     9    32 1   
    29    10    11 1   
    30    10    33 1   
    31    10    34 1   
    32    11    35 1   
    33    11    36 1   
    34    12    13 1   
    35    12    37 1   
    36    12    38 1   
    37    13    14 1   
    38    14    39 1   
    39    14    40 1   
    40    14    41 1   
@<TRIPOS>SUBSTRUCTURE
     1 DCX         1 TEMP              0 ****  ****    0 ROOT
