@<TRIPOS>MOLECULE
DCY
   13    12     1     0     0
SMALL
bcc


@<TRIPOS>ATOM
      1 N           10.4880   -11.0800    23.1100 n8         1 DCY      -0.887800
      2 CA           9.8950    -9.7560    23.1590 c3         1 DCY       0.025500
      3 C            9.7160    -9.2690    24.6230 c          1 DCY       0.941600
      4 O            9.4950    -8.0530    24.7740 o          1 DCY      -0.831800
      5 CB          10.7320    -8.7940    22.3330 c3         1 DCY       0.078700
      6 SG          12.4700    -8.8820    22.8950 sh         1 DCY      -0.381900
      7 OXT          9.7550   -10.1420    25.5120 o          1 DCY      -0.831800
      8 H           10.2290   -11.5530    22.2550 hn         1 DCY       0.330300
      9 H2          10.1250   -11.6230    23.8820 hn         1 DCY       0.330300
     10 HA           8.8830    -9.7340    22.7170 h1         1 DCY      -0.001300
     11 HB2         10.6890    -9.0530    21.2740 h1         1 DCY       0.039200
     12 HB3         10.3670    -7.7770    22.4510 h1         1 DCY       0.039200
     13 HG          12.8130    -7.6280    22.5770 hs         1 DCY       0.150800
@<TRIPOS>BOND
     1     1     2 1   
     2     1     8 1   
     3     1     9 1   
     4     2     3 1   
     5     2     5 1   
     6     2    10 1   
     7     3     4 1   
     8     3     7 1   
     9     5     6 1   
    10     5    11 1   
    11     5    12 1   
    12     6    13 1   
@<TRIPOS>SUBSTRUCTURE
     1 DCY         1 TEMP              0 ****  ****    0 ROOT
