@<TRIPOS>MOLECULE
DCY
   13    12     1     0     0
SMALL
No Charge or Current Charge


@<TRIPOS>ATOM
      1 N           10.4100   -11.2030    23.0860 n8         1 DCY      -0.887800
      2 CA           9.9250    -9.7740    23.2570 c3         1 DCY       0.025500
      3 C            9.6850    -9.2170    24.7310 c          1 DCY       0.941600
      4 O            9.0570    -8.1690    24.8640 o          1 DCY      -0.831800
      5 CB          10.8070    -8.7860    22.4490 c3         1 DCY       0.078700
      6 SG          12.5560    -8.6140    23.0470 sh         1 DCY      -0.381900
      7 OXT         10.0320    -9.8910    25.6990 o          1 DCY      -0.831800
      8 H           10.3490   -11.4710    22.0990 hn         1 DCY       0.330300
      9 H2           9.7680   -11.8380    23.5710 hn         1 DCY       0.330300
     10 HA           8.9340    -9.7610    22.7820 h1         1 DCY      -0.001300
     11 HB2         10.8400    -9.1070    21.4000 h1         1 DCY       0.039200
     12 HB3         10.3460    -7.7900    22.4710 h1         1 DCY       0.039200
     13 HG          12.9480    -7.7240    22.1050 hs         1 DCY       0.150800
@<TRIPOS>BOND
     1     1     2 1   
     2     1     8 1   
     3     1     9 1   
     4     2     3 1   
     5     2     5 1   
     6     2    10 1   
     7     3     4 1   
     8     3     7 1   
     9     5     6 1   
    10     5    11 1   
    11     5    12 1   
    12     6    13 1   
@<TRIPOS>SUBSTRUCTURE
     1 DCY         1 TEMP              0 ****  ****    0 ROOT
