@<TRIPOS>MOLECULE
DD0
   41    43     1     0     0
SMALL
No Charge or Current Charge


@<TRIPOS>ATOM
      1 N1          16.1350    -5.2360    24.3050 nb         1 DD0      -0.362000
      2 C2          15.1310    -4.3920    23.9790 ca         1 DD0       0.462300
      3 C3          16.1110    -6.4430    23.7210 ca         1 DD0       0.446900
      4 C4          14.2200    -6.0770    22.5280 ca         1 DD0       0.182300
      5 C6          12.9780    -4.1230    22.5560 c          1 DD0       0.617600
      6 C8          11.0870    -4.6630    20.9610 c3         1 DD0       0.093700
      7 C11          8.7930    -4.6240    18.3870 c3         1 DD0      -0.063400
      8 C1          16.0470    -2.6630    25.4580 c3         1 DD0       0.155900
      9 O1          15.0570    -3.1290    24.5210 os         1 DD0      -0.421300
     10 N2          15.2140    -6.9250    22.8440 nb         1 DD0      -0.265000
     11 C5          14.1550    -4.8140    23.0770 ca         1 DD0      -0.363600
     12 O2          12.6090    -2.9890    22.8220 o          1 DD0      -0.531000
     13 N3          12.3470    -5.0230    21.6800 n          1 DD0      -0.431800
     14 C7          13.0680    -6.3360    21.5730 c5         1 DD0       0.050700
     15 C9          11.2430    -4.7810    19.4070 c3         1 DD0       0.169300
     16 O3          11.2840    -6.1430    18.9490 oh         1 DD0      -0.651000
     17 C10         10.1840    -3.9760    18.6110 c3         1 DD0      -0.110400
     18 C12          8.1870    -5.4420    19.5520 c3         1 DD0      -0.067400
     19 C13          8.4580    -4.9060    20.9780 c3         1 DD0      -0.120400
     20 C14          9.8200    -5.3240    21.5990 c3         1 DD0       0.174000
     21 F1           9.7860    -4.9810    22.9090 f          1 DD0      -0.117500
     22 F2           9.9260    -6.6740    21.5760 f          1 DD0      -0.117500
     23 N4          17.1230    -7.2690    24.0580 nv         1 DD0      -1.065900
     24 H1          10.9400    -3.5880    21.1290 h1         1 DD0       0.096700
     25 H2           8.0910    -3.8240    18.1220 hc         1 DD0       0.038700
     26 H3           8.8440    -5.2770    17.5070 hc         1 DD0       0.038700
     27 H4          15.8180    -1.6380    25.7760 h1         1 DD0       0.050700
     28 H5          16.0700    -3.2990    26.3520 h1         1 DD0       0.050700
     29 H6          17.0460    -2.6630    25.0040 h1         1 DD0       0.050700
     30 H7          12.4530    -7.1800    21.9090 h1         1 DD0       0.086200
     31 H8          13.4320    -6.5310    20.5560 h1         1 DD0       0.086200
     32 H9          12.2070    -4.3080    19.1750 h1         1 DD0       0.038700
     33 H10         11.3880    -6.1130    17.9740 ho         1 DD0       0.446000
     34 H11         10.6020    -3.7380    17.6250 hc         1 DD0       0.046700
     35 H12         10.0420    -3.0060    19.1030 hc         1 DD0       0.046700
     36 H13          7.1020    -5.4840    19.3970 hc         1 DD0       0.053700
     37 H14          8.5290    -6.4810    19.4770 hc         1 DD0       0.053700
     38 H15          8.3590    -3.8130    20.9920 hc         1 DD0       0.065200
     39 H16          7.6640    -5.2880    21.6320 hc         1 DD0       0.065200
     40 H17         17.2920    -8.0810    23.4700 hn         1 DD0       0.509000
     41 H18         17.9370    -6.8660    24.5160 hn         1 DD0       0.509000
@<TRIPOS>BOND
     1     1     2 ar  
     2     1     3 ar  
     3     2     9 1   
     4     2    11 ar  
     5     3    10 ar  
     6     3    23 1   
     7     4    10 ar  
     8     4    11 ar  
     9     4    14 1   
    10     5    11 1   
    11     5    12 2   
    12     5    13 1   
    13     6    13 1   
    14     6    15 1   
    15     6    20 1   
    16     6    24 1   
    17     7    17 1   
    18     7    18 1   
    19     7    25 1   
    20     7    26 1   
    21     8     9 1   
    22     8    27 1   
    23     8    28 1   
    24     8    29 1   
    25    13    14 1   
    26    14    30 1   
    27    14    31 1   
    28    15    16 1   
    29    15    17 1   
    30    15    32 1   
    31    16    33 1   
    32    17    34 1   
    33    17    35 1   
    34    18    19 1   
    35    18    36 1   
    36    18    37 1   
    37    19    20 1   
    38    19    38 1   
    39    19    39 1   
    40    20    21 1   
    41    20    22 1   
    42    23    40 1   
    43    23    41 1   
@<TRIPOS>SUBSTRUCTURE
     1 DD0         1 TEMP              0 ****  ****    0 ROOT
