@<TRIPOS>MOLECULE
DD0
   41    43     1     0     0
SMALL
abcg2


@<TRIPOS>ATOM
      1 N1          16.0310    -5.2210    24.2480 nb         1 DD0      -0.362000
      2 C2          15.0710    -4.3670    23.9790 ca         1 DD0       0.462300
      3 C3          16.0500    -6.3900    23.5840 ca         1 DD0       0.446900
      4 C4          14.2150    -5.9070    22.4190 ca         1 DD0       0.182300
      5 C6          12.9230    -3.9810    22.4910 c          1 DD0       0.617600
      6 C8          11.1390    -4.5150    20.8820 c3         1 DD0       0.093700
      7 C11          8.8200    -4.8780    18.4280 c3         1 DD0      -0.063400
      8 C1          15.9960    -2.9330    25.6060 c3         1 DD0       0.155900
      9 O1          15.0130    -3.2140    24.6110 os         1 DD0      -0.421300
     10 N2          15.1620    -6.7890    22.6600 nb         1 DD0      -0.265000
     11 C5          14.0960    -4.6740    23.0220 ca         1 DD0      -0.363600
     12 O2          12.5160    -2.8640    22.7560 o          1 DD0      -0.531000
     13 N3          12.3550    -4.8460    21.5890 n          1 DD0      -0.431800
     14 C7          13.1050    -6.0830    21.4380 c5         1 DD0       0.050700
     15 C9          11.2380    -4.7810    19.3760 c3         1 DD0       0.169300
     16 O3          11.2900    -6.1670    19.1350 oh         1 DD0      -0.651000
     17 C10         10.1230    -4.0940    18.5810 c3         1 DD0      -0.110400
     18 C12          8.2670    -5.5450    19.6900 c3         1 DD0      -0.067400
     19 C13          8.5560    -4.8130    20.9990 c3         1 DD0      -0.120400
     20 C14          9.9180    -5.0960    21.5990 c3         1 DD0       0.174000
     21 F1           9.9290    -4.5910    22.8770 f          1 DD0      -0.117500
     22 F2          10.0710    -6.4450    21.7700 f          1 DD0      -0.117500
     23 N4          17.0440    -7.2310    23.8780 nv         1 DD0      -1.065900
     24 H1          11.0310    -3.4300    20.9670 h1         1 DD0       0.096700
     25 H2           8.0760    -4.1830    18.0320 hc         1 DD0       0.038700
     26 H3           8.9450    -5.6430    17.6600 hc         1 DD0       0.038700
     27 H4          15.7470    -1.9500    25.9940 h1         1 DD0       0.050700
     28 H5          15.9640    -3.6620    26.4160 h1         1 DD0       0.050700
     29 H6          17.0000    -2.9150    25.1830 h1         1 DD0       0.050700
     30 H7          12.5120    -6.9700    21.6640 h1         1 DD0       0.086200
     31 H8          13.5070    -6.2020    20.4300 h1         1 DD0       0.086200
     32 H9          12.1840    -4.3040    19.0840 h1         1 DD0       0.038700
     33 H10         11.4980    -6.3040    18.2040 ho         1 DD0       0.446000
     34 H11         10.5010    -3.8800    17.5780 hc         1 DD0       0.046700
     35 H12          9.9290    -3.1140    19.0270 hc         1 DD0       0.046700
     36 H13          7.1840    -5.6300    19.5890 hc         1 DD0       0.053700
     37 H14          8.6320    -6.5690    19.7630 hc         1 DD0       0.053700
     38 H15          8.4400    -3.7330    20.8780 hc         1 DD0       0.065200
     39 H16          7.8200    -5.1170    21.7480 hc         1 DD0       0.065200
     40 H17         17.1260    -8.1070    23.3930 hn         1 DD0       0.509000
     41 H18         17.7540    -6.9730    24.5400 hn         1 DD0       0.509000
@<TRIPOS>BOND
     1     1     2 ar  
     2     1     3 ar  
     3     2     9 1   
     4     2    11 ar  
     5     3    10 ar  
     6     3    23 1   
     7     4    10 ar  
     8     4    11 ar  
     9     4    14 1   
    10     5    11 1   
    11     5    12 2   
    12     5    13 1   
    13     6    13 1   
    14     6    15 1   
    15     6    20 1   
    16     6    24 1   
    17     7    17 1   
    18     7    18 1   
    19     7    25 1   
    20     7    26 1   
    21     8     9 1   
    22     8    27 1   
    23     8    28 1   
    24     8    29 1   
    25    13    14 1   
    26    14    30 1   
    27    14    31 1   
    28    15    16 1   
    29    15    17 1   
    30    15    32 1   
    31    16    33 1   
    32    17    34 1   
    33    17    35 1   
    34    18    19 1   
    35    18    36 1   
    36    18    37 1   
    37    19    20 1   
    38    19    38 1   
    39    19    39 1   
    40    20    21 1   
    41    20    22 1   
    42    23    40 1   
    43    23    41 1   
@<TRIPOS>SUBSTRUCTURE
     1 DD0         1 TEMP              0 ****  ****    0 ROOT
