@<TRIPOS>MOLECULE
DD1
   52    55     1     0     0
SMALL
No Charge or Current Charge


@<TRIPOS>ATOM
      1 F58         -5.4000     2.0500    -1.7030 f          1 DD1      -0.187000
      2 C1          -5.7520     1.5990    -0.4780 ca         1 DD1       0.165000
      3 C6          -6.3820     2.4810     0.4160 ca         1 DD1      -0.152000
      4 C5          -6.7550     2.0400     1.6970 ca         1 DD1      -0.085000
      5 C4          -6.4940     0.7140     2.0810 ca         1 DD1      -0.130000
      6 C3          -5.8630    -0.1690     1.1870 ca         1 DD1      -0.069000
      7 C2          -5.4870     0.2650    -0.1000 ca         1 DD1      -0.123300
      8 C13         -4.8030    -0.7120    -1.0540 c3         1 DD1       0.223100
      9 N15         -3.4560    -1.1270    -0.5940 n3         1 DD1      -0.730600
     10 C21         -2.9000    -2.2320    -1.4230 c6         1 DD1       0.170300
     11 C20         -1.5510    -2.7410    -0.8610 c6         1 DD1      -0.072400
     12 C19         -0.5180    -1.5890    -0.7460 c6         1 DD1      -0.068700
     13 C18         -1.1370    -0.4310     0.0830 c6         1 DD1      -0.072400
     14 C17         -2.5000     0.0130    -0.5000 c6         1 DD1       0.170300
     15 C28          0.8270    -2.0920    -0.1520 c3         1 DD1       0.173600
     16 O30          1.7920    -1.0250    -0.1980 os         1 DD1      -0.380100
     17 C32          3.0860    -1.1620     0.2770 ca         1 DD1       0.211100
     18 C38          3.9950    -0.0710     0.1980 ca         1 DD1      -0.250000
     19 C45          3.6750     1.2010    -0.3350 ca         1 DD1       0.456900
     20 N54          2.4580     1.5400    -0.8160 nv         1 DD1      -1.070900
     21 N46          4.5570     2.1990    -0.4140 nb         1 DD1      -0.363000
     22 C47          5.7710     1.9290     0.0570 ca         1 DD1       0.429900
     23 N56          6.6690     2.9340    -0.0200 nv         1 DD1      -1.056900
     24 N48          6.2080     0.7860     0.5910 nb         1 DD1      -0.302000
     25 C37          5.3240    -0.2300     0.6680 ca         1 DD1       0.133000
     26 C36          5.7260    -1.4580     1.2160 ca         1 DD1      -0.159000
     27 C35          4.8320    -2.5310     1.3010 ca         1 DD1      -0.033000
     28 C34          3.5200    -2.3850     0.8330 ca         1 DD1      -0.257000
     29 H6          -6.5800     3.5070     0.1130 ha         1 DD1       0.131000
     30 H5          -7.2430     2.7230     2.3890 ha         1 DD1       0.117000
     31 H4          -6.7790     0.3700     3.0730 ha         1 DD1       0.118000
     32 H3          -5.6590    -1.1940     1.4940 ha         1 DD1       0.135000
     33 H13         -5.4510    -1.5950    -1.1410 h1         1 DD1       0.047200
     34 H13A        -4.7390    -0.2750    -2.0600 h1         1 DD1       0.047200
     35 H21         -3.6060    -3.0750    -1.4560 h1         1 DD1       0.034950
     36 H21A        -2.7530    -1.8930    -2.4590 h1         1 DD1       0.034950
     37 H20         -1.7170    -3.1980     0.1240 hc         1 DD1       0.051700
     38 H20A        -1.1610    -3.5350    -1.5130 hc         1 DD1       0.051700
     39 H19         -0.2950    -1.2220    -1.7570 hc         1 DD1       0.054700
     40 H18         -1.2760    -0.7490     1.1260 hc         1 DD1       0.051700
     41 H18A        -0.4570     0.4300     0.1080 hc         1 DD1       0.051700
     42 H17         -2.3380     0.4560    -1.4950 h1         1 DD1       0.034950
     43 H17A        -2.9060     0.8080     0.1430 h1         1 DD1       0.034950
     44 H28          0.6600    -2.4240     0.8820 h1         1 DD1       0.042700
     45 H28A         1.1780    -2.9500    -0.7420 h1         1 DD1       0.042700
     46 HN54         2.3970     2.3210    -1.4610 hn         1 DD1       0.505500
     47 HN5A         1.7960     0.7760    -0.9340 hn         1 DD1       0.505500
     48 HN56         6.4480     3.7220    -0.6230 hn         1 DD1       0.488000
     49 HN5B         7.6530     2.7110     0.1010 hn         1 DD1       0.488000
     50 H36          6.7440    -1.5800     1.5780 ha         1 DD1       0.133000
     51 H35          5.1580    -3.4780     1.7280 ha         1 DD1       0.111000
     52 H34          2.8560    -3.2400     0.9100 ha         1 DD1       0.116000
@<TRIPOS>BOND
     1     1     2 1   
     2     2     3 ar  
     3     2     7 ar  
     4     3     4 ar  
     5     3    29 1   
     6     4     5 ar  
     7     4    30 1   
     8     5     6 ar  
     9     5    31 1   
    10     6     7 ar  
    11     6    32 1   
    12     7     8 1   
    13     8     9 1   
    14     8    33 1   
    15     8    34 1   
    16     9    10 1   
    17     9    14 1   
    18    10    11 1   
    19    10    35 1   
    20    10    36 1   
    21    11    12 1   
    22    11    37 1   
    23    11    38 1   
    24    12    13 1   
    25    12    15 1   
    26    12    39 1   
    27    13    14 1   
    28    13    40 1   
    29    13    41 1   
    30    14    42 1   
    31    14    43 1   
    32    15    16 1   
    33    15    44 1   
    34    15    45 1   
    35    16    17 1   
    36    17    18 ar  
    37    17    28 ar  
    38    18    19 ar  
    39    18    25 ar  
    40    19    20 1   
    41    19    21 ar  
    42    20    46 1   
    43    20    47 1   
    44    21    22 ar  
    45    22    23 1   
    46    22    24 ar  
    47    23    48 1   
    48    23    49 1   
    49    24    25 ar  
    50    25    26 ar  
    51    26    27 ar  
    52    26    50 1   
    53    27    28 ar  
    54    27    51 1   
    55    28    52 1   
@<TRIPOS>SUBSTRUCTURE
     1 DD1         1 TEMP              0 ****  ****    0 ROOT
