@<TRIPOS>MOLECULE
DD1
   52    55     1     0     0
SMALL
abcg2


@<TRIPOS>ATOM
      1 F58         -6.7660     1.2880    -1.7040 f          1 DD1      -0.187000
      2 C1          -6.4180     1.1640    -0.4080 ca         1 DD1       0.165000
      3 C6          -7.1320     1.8840     0.5290 ca         1 DD1      -0.152000
      4 C5          -6.7890     1.7590     1.8680 ca         1 DD1      -0.085000
      5 C4          -5.7470     0.9190     2.2370 ca         1 DD1      -0.130000
      6 C3          -5.0510     0.2080     1.2690 ca         1 DD1      -0.069000
      7 C2          -5.3680     0.3190    -0.0830 ca         1 DD1      -0.123300
      8 C13         -4.6440    -0.4760    -1.1440 c3         1 DD1       0.223100
      9 N15         -3.3370    -0.9150    -0.7100 n3         1 DD1      -0.730600
     10 C21         -2.8610    -2.0590    -1.4630 c6         1 DD1       0.170300
     11 C20         -1.5570    -2.5830    -0.8850 c6         1 DD1      -0.072400
     12 C19         -0.4900    -1.4910    -0.8540 c6         1 DD1      -0.068700
     13 C18         -1.0440    -0.2700    -0.1250 c6         1 DD1      -0.072400
     14 C17         -2.3690     0.1670    -0.7270 c6         1 DD1       0.170300
     15 C28          0.7770    -2.0330    -0.2240 c3         1 DD1       0.173600
     16 O30          1.7830    -1.0310    -0.2990 os         1 DD1      -0.380100
     17 C32          2.9800    -1.2340     0.2750 ca         1 DD1       0.211100
     18 C38          3.9180    -0.1700     0.1910 ca         1 DD1      -0.250000
     19 C45          3.7090     1.0950    -0.4750 ca         1 DD1       0.456900
     20 N54          2.5780     1.4000    -1.1180 nv         1 DD1      -1.070900
     21 N46          4.6440     2.0260    -0.4730 nb         1 DD1      -0.363000
     22 C47          5.8040     1.7660     0.1520 ca         1 DD1       0.429900
     23 N56          6.7010     2.7790     0.1560 nv         1 DD1      -1.056900
     24 N48          6.1300     0.6510     0.7700 nb         1 DD1      -0.302000
     25 C37          5.1910    -0.3200     0.7950 ca         1 DD1       0.133000
     26 C36          5.5030    -1.5290     1.4550 ca         1 DD1      -0.159000
     27 C35          4.5790    -2.5370     1.5080 ca         1 DD1      -0.033000
     28 C34          3.3120    -2.4060     0.9240 ca         1 DD1      -0.257000
     29 H6          -7.9430     2.5290     0.2160 ha         1 DD1       0.131000
     30 H5          -7.3370     2.3180     2.6150 ha         1 DD1       0.117000
     31 H4          -5.4740     0.8160     3.2790 ha         1 DD1       0.118000
     32 H3          -4.2370    -0.4460     1.5530 ha         1 DD1       0.135000
     33 H13         -5.2440    -1.3610    -1.3780 h1         1 DD1       0.047200
     34 H13A        -4.5910     0.1030    -2.0790 h1         1 DD1       0.047200
     35 H21         -3.6190    -2.8450    -1.4240 h1         1 DD1       0.034950
     36 H21A        -2.7120    -1.8140    -2.5300 h1         1 DD1       0.034950
     37 H20         -1.7390    -2.9500     0.1300 hc         1 DD1       0.051700
     38 H20A        -1.2170    -3.4350    -1.4790 hc         1 DD1       0.051700
     39 H19         -0.2660    -1.2100    -1.8910 hc         1 DD1       0.054700
     40 H18         -1.1940    -0.5130     0.9320 hc         1 DD1       0.051700
     41 H18A        -0.3450     0.5690    -0.1640 hc         1 DD1       0.051700
     42 H17         -2.2030     0.5320    -1.7570 h1         1 DD1       0.034950
     43 H17A        -2.7650     1.0110    -0.1580 h1         1 DD1       0.034950
     44 H28          0.5940    -2.3020     0.8230 h1         1 DD1       0.042700
     45 H28A         1.1090    -2.9340    -0.7510 h1         1 DD1       0.042700
     46 HN54         2.5330     2.2730    -1.6140 hn         1 DD1       0.505500
     47 HN5A         1.8500     0.7250    -1.2580 hn         1 DD1       0.505500
     48 HN56         6.5680     3.5330    -0.4940 hn         1 DD1       0.488000
     49 HN5B         7.6510     2.5690     0.4110 hn         1 DD1       0.488000
     50 H36          6.4780    -1.6330     1.9120 ha         1 DD1       0.133000
     51 H35          4.8230    -3.4620     2.0140 ha         1 DD1       0.111000
     52 H34          2.6160    -3.2290     0.9930 ha         1 DD1       0.116000
@<TRIPOS>BOND
     1     1     2 1   
     2     2     3 ar  
     3     2     7 ar  
     4     3     4 ar  
     5     3    29 1   
     6     4     5 ar  
     7     4    30 1   
     8     5     6 ar  
     9     5    31 1   
    10     6     7 ar  
    11     6    32 1   
    12     7     8 1   
    13     8     9 1   
    14     8    33 1   
    15     8    34 1   
    16     9    10 1   
    17     9    14 1   
    18    10    11 1   
    19    10    35 1   
    20    10    36 1   
    21    11    12 1   
    22    11    37 1   
    23    11    38 1   
    24    12    13 1   
    25    12    15 1   
    26    12    39 1   
    27    13    14 1   
    28    13    40 1   
    29    13    41 1   
    30    14    42 1   
    31    14    43 1   
    32    15    16 1   
    33    15    44 1   
    34    15    45 1   
    35    16    17 1   
    36    17    18 ar  
    37    17    28 ar  
    38    18    19 ar  
    39    18    25 ar  
    40    19    20 1   
    41    19    21 ar  
    42    20    46 1   
    43    20    47 1   
    44    21    22 ar  
    45    22    23 1   
    46    22    24 ar  
    47    23    48 1   
    48    23    49 1   
    49    24    25 ar  
    50    25    26 ar  
    51    26    27 ar  
    52    26    50 1   
    53    27    28 ar  
    54    27    51 1   
    55    28    52 1   
@<TRIPOS>SUBSTRUCTURE
     1 DD1         1 TEMP              0 ****  ****    0 ROOT
