@<TRIPOS>MOLECULE
DD2
   52    55     1     0     0
SMALL
No Charge or Current Charge


@<TRIPOS>ATOM
      1 C1           5.4940     0.2540     0.3680 ca         1 DD2       0.141000
      2 C2           4.8460     1.0650    -0.5940 ca         1 DD2      -0.068300
      3 C3           5.4170     1.2070    -1.8760 ca         1 DD2      -0.102000
      4 C4           6.6140     0.5490    -2.2020 ca         1 DD2      -0.104000
      5 C5           7.2530    -0.2570    -1.2470 ca         1 DD2      -0.094000
      6 C6           6.6970    -0.4060     0.0340 ca         1 DD2       0.113000
      7 C9           3.5390     1.7900    -0.2730 c3         1 DD2       0.216100
      8 C11          1.1380     1.5900     0.2440 c6         1 DD2       0.170300
      9 C14          0.9180    -0.7360    -1.5320 c6         1 DD2      -0.072400
     10 C15          2.0920     0.2710    -1.6000 c6         1 DD2       0.170300
     11 O17         -2.7460    -0.3830    -0.5280 os         1 DD2      -0.382100
     12 C18         -3.9590    -1.0240    -0.3440 ca         1 DD2       0.212100
     13 C19         -4.0660    -2.4220    -0.5170 ca         1 DD2      -0.256000
     14 C20         -5.2950    -3.0720    -0.3440 ca         1 DD2      -0.033000
     15 C21         -6.4320    -2.3320    -0.0020 ca         1 DD2      -0.160000
     16 C22         -6.3580    -0.9410     0.1760 ca         1 DD2       0.133000
     17 C24         -5.1320     1.1240     0.2150 ca         1 DD2       0.457900
     18 C26         -7.3420     1.0680     0.6520 ca         1 DD2       0.427900
     19 Cl8          4.8110     0.0610     1.9910 cl         1 DD2      -0.163000
     20 Cl7          7.5340    -1.4270     1.2070 cl         1 DD2      -0.174000
     21 N10          2.3510     0.9010    -0.2750 n3         1 DD2      -0.715600
     22 C13         -0.3720    -0.0630    -0.9940 c6         1 DD2      -0.069700
     23 C12         -0.0620     0.6210     0.3650 c6         1 DD2      -0.072400
     24 C16         -1.5420    -1.0820    -0.8930 c3         1 DD2       0.174600
     25 C23         -5.1150    -0.2770     0.0120 ca         1 DD2      -0.250000
     26 N29         -4.0430     1.9200     0.1160 nv         1 DD2      -1.071900
     27 N25         -6.2390     1.8010     0.5270 nb         1 DD2      -0.364000
     28 N28         -8.4650     1.7460     0.9680 nv         1 DD2      -1.054900
     29 N27         -7.4710    -0.2520     0.4990 nb         1 DD2      -0.302000
     30 H3           4.9280     1.8270    -2.6250 ha         1 DD2       0.117000
     31 H4           7.0460     0.6640    -3.1940 ha         1 DD2       0.122000
     32 H5           8.1800    -0.7670    -1.4990 ha         1 DD2       0.132000
     33 H9           3.6460     2.2690     0.7100 h1         1 DD2       0.044200
     34 H9A          3.3950     2.6040    -0.9960 h1         1 DD2       0.044200
     35 H11          1.3410     2.0200     1.2360 h1         1 DD2       0.032450
     36 H11A         0.8620     2.4230    -0.4200 h1         1 DD2       0.032450
     37 H14          0.7390    -1.1550    -2.5310 hc         1 DD2       0.053450
     38 H14A         1.2010    -1.5770    -0.8850 hc         1 DD2       0.053450
     39 H15          2.9830    -0.2680    -1.9540 h1         1 DD2       0.032450
     40 H15A         1.8620     1.0420    -2.3500 h1         1 DD2       0.032450
     41 H19         -3.2060    -3.0270    -0.7880 ha         1 DD2       0.117000
     42 H20         -5.3670    -4.1490    -0.4800 ha         1 DD2       0.111000
     43 H21         -7.3840    -2.8420     0.1260 ha         1 DD2       0.133000
     44 H13         -0.6880     0.7050    -1.7140 hc         1 DD2       0.053700
     45 H12          0.1630    -0.1400     1.1260 hc         1 DD2       0.053450
     46 H12A        -0.9380     1.1740     0.7260 hc         1 DD2       0.053450
     47 H16         -1.2890    -1.8440    -0.1440 h1         1 DD2       0.043700
     48 H16A        -1.6670    -1.5760    -1.8660 h1         1 DD2       0.043700
     49 HN29        -3.2150     1.4830    -0.2830 hn         1 DD2       0.506500
     50 HN2A        -4.1830     2.9100    -0.0610 hn         1 DD2       0.506500
     51 HN28        -8.4550     2.7570     0.8630 hn         1 DD2       0.486500
     52 HN2B        -9.3600     1.2810     0.8430 hn         1 DD2       0.486500
@<TRIPOS>BOND
     1     1     2 ar  
     2     1     6 ar  
     3     1    19 1   
     4     2     3 ar  
     5     2     7 1   
     6     3     4 ar  
     7     3    30 1   
     8     4     5 ar  
     9     4    31 1   
    10     5     6 ar  
    11     5    32 1   
    12     6    20 1   
    13     7    21 1   
    14     7    33 1   
    15     7    34 1   
    16     8    21 1   
    17     8    23 1   
    18     8    35 1   
    19     8    36 1   
    20     9    10 1   
    21     9    22 1   
    22     9    37 1   
    23     9    38 1   
    24    10    21 1   
    25    10    39 1   
    26    10    40 1   
    27    11    12 1   
    28    11    24 1   
    29    12    13 ar  
    30    12    25 ar  
    31    13    14 ar  
    32    13    41 1   
    33    14    15 ar  
    34    14    42 1   
    35    15    16 ar  
    36    15    43 1   
    37    16    25 ar  
    38    16    29 ar  
    39    17    25 ar  
    40    17    26 1   
    41    17    27 ar  
    42    18    27 ar  
    43    18    28 1   
    44    18    29 ar  
    45    22    23 1   
    46    22    24 1   
    47    22    44 1   
    48    23    45 1   
    49    23    46 1   
    50    24    47 1   
    51    24    48 1   
    52    26    49 1   
    53    26    50 1   
    54    28    51 1   
    55    28    52 1   
@<TRIPOS>SUBSTRUCTURE
     1 DD2         1 TEMP              0 ****  ****    0 ROOT
