@<TRIPOS>MOLECULE
DD2
   52    55     1     0     0
SMALL
abcg2


@<TRIPOS>ATOM
      1 C1           5.2000     0.2060     0.4110 ca         1 DD2       0.141000
      2 C2           4.7150     1.0340    -0.6020 ca         1 DD2      -0.068300
      3 C3           5.4400     1.1220    -1.7830 ca         1 DD2      -0.102000
      4 C4           6.6150     0.4070    -1.9650 ca         1 DD2      -0.104000
      5 C5           7.0890    -0.4120    -0.9560 ca         1 DD2      -0.094000
      6 C6           6.3810    -0.5080     0.2330 ca         1 DD2       0.113000
      7 C9           3.4340     1.8050    -0.4330 c3         1 DD2       0.216100
      8 C11          1.1210     1.5790     0.1580 c6         1 DD2       0.170300
      9 C14          0.8510    -0.5960    -1.7080 c6         1 DD2      -0.072400
     10 C15          1.9920     0.4080    -1.7460 c6         1 DD2       0.170300
     11 O17         -2.7020    -0.3330    -0.6170 os         1 DD2      -0.382100
     12 C18         -3.8280    -1.0300    -0.3920 ca         1 DD2       0.212100
     13 C19         -3.9010    -2.4020    -0.5250 ca         1 DD2      -0.256000
     14 C20         -5.1090    -3.0580    -0.2550 ca         1 DD2      -0.033000
     15 C21         -6.2280    -2.3720     0.1360 ca         1 DD2      -0.160000
     16 C22         -6.1840    -0.9670     0.2690 ca         1 DD2       0.133000
     17 C24         -5.0370     1.1510     0.1500 ca         1 DD2       0.457900
     18 C26         -7.2350     0.9810     0.7600 ca         1 DD2       0.427900
     19 CL8          4.3520     0.0870     1.9070 cl         1 DD2      -0.163000
     20 CL7          6.9880    -1.5250     1.4860 cl         1 DD2      -0.174000
     21 N10          2.2790     0.9320    -0.4260 n3         1 DD2      -0.715600
     22 C13         -0.4020     0.0300    -1.1060 c6         1 DD2      -0.069700
     23 C12         -0.0540     0.6190     0.2590 c6         1 DD2      -0.072400
     24 C16         -1.5140    -0.9970    -1.0300 c3         1 DD2       0.174600
     25 C23         -4.9720    -0.2840    -0.0000 ca         1 DD2      -0.250000
     26 N29         -3.9940     1.9530    -0.0760 nv         1 DD2      -1.071900
     27 N25         -6.1550     1.7440     0.5260 nb         1 DD2      -0.364000
     28 N28         -8.3370     1.6460     1.1800 nv         1 DD2      -1.054900
     29 N27         -7.3120    -0.3280     0.6490 nb         1 DD2      -0.302000
     30 H3           5.0690     1.7620    -2.5750 ha         1 DD2       0.117000
     31 H4           7.1630     0.4840    -2.8940 ha         1 DD2       0.122000
     32 H5           8.0040    -0.9740    -1.0840 ha         1 DD2       0.132000
     33 H9           3.4630     2.3490     0.5150 h1         1 DD2       0.044200
     34 H9A          3.3750     2.5700    -1.2250 h1         1 DD2       0.044200
     35 H11          1.3890     1.9330     1.1560 h1         1 DD2       0.032450
     36 H11A         0.8130     2.4680    -0.4220 h1         1 DD2       0.032450
     37 H14          0.6560    -0.9510    -2.7230 hc         1 DD2       0.053450
     38 H14A         1.1550    -1.4640    -1.1150 hc         1 DD2       0.053450
     39 H15          2.8860    -0.0790    -2.1410 h1         1 DD2       0.032450
     40 H15A         1.7410     1.2200    -2.4540 h1         1 DD2       0.032450
     41 H19         -3.0440    -2.9850    -0.8320 ha         1 DD2       0.117000
     42 H20         -5.1490    -4.1340    -0.3580 ha         1 DD2       0.111000
     43 H21         -7.1570    -2.8840     0.3480 ha         1 DD2       0.133000
     44 H13         -0.7270     0.8410    -1.7710 hc         1 DD2       0.053700
     45 H12          0.2030    -0.1930     0.9470 hc         1 DD2       0.053450
     46 H12A        -0.9040     1.1480     0.6940 hc         1 DD2       0.053450
     47 H16         -1.2500    -1.7820    -0.3120 h1         1 DD2       0.043700
     48 H16A        -1.6730    -1.4690    -2.0050 h1         1 DD2       0.043700
     49 HN29        -3.1270     1.6050    -0.4400 hn         1 DD2       0.506500
     50 HN2A        -4.1300     2.9470    -0.0050 hn         1 DD2       0.506500
     51 HN28        -8.3700     2.6410     1.0380 hn         1 DD2       0.486500
     52 HN2B        -9.2180     1.1620     1.1470 hn         1 DD2       0.486500
@<TRIPOS>BOND
     1     1     2 ar  
     2     1     6 ar  
     3     1    19 1   
     4     2     3 ar  
     5     2     7 1   
     6     3     4 ar  
     7     3    30 1   
     8     4     5 ar  
     9     4    31 1   
    10     5     6 ar  
    11     5    32 1   
    12     6    20 1   
    13     7    21 1   
    14     7    33 1   
    15     7    34 1   
    16     8    21 1   
    17     8    23 1   
    18     8    35 1   
    19     8    36 1   
    20     9    10 1   
    21     9    22 1   
    22     9    37 1   
    23     9    38 1   
    24    10    21 1   
    25    10    39 1   
    26    10    40 1   
    27    11    12 1   
    28    11    24 1   
    29    12    13 ar  
    30    12    25 ar  
    31    13    14 ar  
    32    13    41 1   
    33    14    15 ar  
    34    14    42 1   
    35    15    16 ar  
    36    15    43 1   
    37    16    25 ar  
    38    16    29 ar  
    39    17    25 ar  
    40    17    26 1   
    41    17    27 ar  
    42    18    27 ar  
    43    18    28 1   
    44    18    29 ar  
    45    22    23 1   
    46    22    24 1   
    47    22    44 1   
    48    23    45 1   
    49    23    46 1   
    50    24    47 1   
    51    24    48 1   
    52    26    49 1   
    53    26    50 1   
    54    28    51 1   
    55    28    52 1   
@<TRIPOS>SUBSTRUCTURE
     1 DD2         1 TEMP              0 ****  ****    0 ROOT
