@<TRIPOS>MOLECULE
DD3
   37    39     1     0     0
SMALL
No Charge or Current Charge


@<TRIPOS>ATOM
      1 C14         13.4140    13.5290   -14.2850 ca         1 DD3      -0.115300
      2 C13         11.3160    12.2200   -13.7070 c3         1 DD3      -0.091100
      3 C12         12.4000    12.4870   -14.7660 c3         1 DD3       0.228600
      4 C17         15.2810    15.4610   -13.4160 ca         1 DD3      -0.093000
      5 C16         15.3200    14.1590   -12.8930 ca         1 DD3       0.125000
      6 C15         14.3910    13.1970   -13.3220 ca         1 DD3      -0.079000
      7 N3          15.4390     7.7050   -15.0980 nb         1 DD3      -0.355000
      8 C10         14.0280    11.0460   -15.9870 ca         1 DD3       0.198100
      9 C8          15.2340    11.8500   -17.9560 ca         1 DD3      -0.038000
     10 C7          16.0150    10.6880   -17.9550 ca         1 DD3      -0.151000
     11 C5          14.8090     9.8570   -16.0020 ca         1 DD3      -0.240000
     12 C4          14.6710     8.7960   -15.0740 ca         1 DD3       0.450900
     13 C19         13.3790    14.8400   -14.8040 ca         1 DD3      -0.098000
     14 C9          14.2470    12.0280   -16.9780 ca         1 DD3      -0.231000
     15 Cl2         16.5360    13.7300   -11.6960 cl         1 DD3      -0.208000
     16 C18         14.3090    15.8020   -14.3720 ca         1 DD3      -0.101000
     17 O11         13.0650    11.2300   -15.0060 os         1 DD3      -0.390100
     18 C6          15.8150     9.6890   -16.9890 ca         1 DD3       0.126000
     19 N1          16.5830     8.5810   -17.0100 nb         1 DD3      -0.297000
     20 N22         13.7520     8.7670   -14.0820 nv         1 DD3      -1.077900
     21 C2          16.3490     7.6640   -16.0670 ca         1 DD3       0.417900
     22 N21         17.1310     6.5630   -16.0970 nv         1 DD3      -1.050900
     23 H13A        10.7700    13.1430   -13.4810 hc         1 DD3       0.052367
     24 H13B        10.5970    11.4780   -14.0730 hc         1 DD3       0.052367
     25 H12         11.9010    12.8390   -15.6780 h1         1 DD3       0.057700
     26 H17         16.0020    16.2030   -13.0810 ha         1 DD3       0.132000
     27 H15         14.4350    12.1930   -12.9080 ha         1 DD3       0.137000
     28 H8          15.3970    12.6140   -18.7130 ha         1 DD3       0.112000
     29 H7          16.7830    10.5600   -18.7140 ha         1 DD3       0.133000
     30 H19         12.6310    15.1150   -15.5450 ha         1 DD3       0.116000
     31 H9          13.6610    12.9400   -17.0110 ha         1 DD3       0.117000
     32 H18         14.2760    16.8110   -14.7780 ha         1 DD3       0.121000
     33 HN22        13.9190     8.1600   -13.2850 hn         1 DD3       0.509500
     34 HN2A        13.2380     9.6320   -13.9210 hn         1 DD3       0.509500
     35 HN21        17.9750     6.5910   -16.6610 hn         1 DD3       0.484500
     36 HN2B        17.1430     5.9590   -15.2790 hn         1 DD3       0.484500
     37 H13         11.7600    11.8460   -12.7770 hc         1 DD3       0.052367
@<TRIPOS>BOND
     1     1     3 1   
     2     1     6 ar  
     3     1    13 ar  
     4     2     3 1   
     5     2    23 1   
     6     2    24 1   
     7     2    37 1   
     8     3    17 1   
     9     3    25 1   
    10     4     5 ar  
    11     4    16 ar  
    12     4    26 1   
    13     5     6 ar  
    14     5    15 1   
    15     6    27 1   
    16     7    12 ar  
    17     7    21 ar  
    18     8    11 ar  
    19     8    14 ar  
    20     8    17 1   
    21     9    10 ar  
    22     9    14 ar  
    23     9    28 1   
    24    10    18 ar  
    25    10    29 1   
    26    11    12 ar  
    27    11    18 ar  
    28    12    20 1   
    29    13    16 ar  
    30    13    30 1   
    31    14    31 1   
    32    16    32 1   
    33    18    19 ar  
    34    19    21 ar  
    35    20    33 1   
    36    20    34 1   
    37    21    22 1   
    38    22    35 1   
    39    22    36 1   
@<TRIPOS>SUBSTRUCTURE
     1 DD3         1 TEMP              0 ****  ****    0 ROOT
