@<TRIPOS>MOLECULE
DD3
   37    39     1     0     0
SMALL
abcg2


@<TRIPOS>ATOM
      1 C14         13.4470    13.4900   -14.3350 ca         1 DD3      -0.115300
      2 C13         11.3160    12.2610   -13.8030 c3         1 DD3      -0.091100
      3 C12         12.4090    12.5080   -14.8300 c3         1 DD3       0.228600
      4 C17         15.3150    15.3290   -13.3550 ca         1 DD3      -0.093000
      5 C16         15.3850    13.9850   -13.0140 ca         1 DD3       0.125000
      6 C15         14.4660    13.0620   -13.4860 ca         1 DD3      -0.079000
      7 N3          15.5180     7.8490   -14.9790 nb         1 DD3      -0.355000
      8 C10         13.9600    11.0820   -16.0470 ca         1 DD3       0.198100
      9 C8          15.1410    11.7970   -18.0170 ca         1 DD3      -0.038000
     10 C7          15.9410    10.6810   -17.9880 ca         1 DD3      -0.151000
     11 C5          14.7720     9.9180   -15.9790 ca         1 DD3      -0.240000
     12 C4          14.6970     8.8920   -14.9620 ca         1 DD3       0.450900
     13 C19         13.3670    14.8320   -14.6910 ca         1 DD3      -0.098000
     14 C9          14.1480    12.0120   -17.0510 ca         1 DD3      -0.231000
     15 CL2         16.6740    13.4380   -11.9580 cl         1 DD3      -0.208000
     16 C18         14.2930    15.7460   -14.2000 ca         1 DD3      -0.101000
     17 O11         12.9990    11.2170   -15.0880 os         1 DD3      -0.390100
     18 C6          15.7760     9.7180   -16.9690 ca         1 DD3       0.126000
     19 N1          16.5980     8.6320   -16.9610 nb         1 DD3      -0.297000
     20 N22         13.8060     8.9390   -13.9590 nv         1 DD3      -1.077900
     21 C2          16.4220     7.7650   -15.9790 ca         1 DD3       0.417900
     22 N21         17.2000     6.6430   -15.9730 nv         1 DD3      -1.050900
     23 H13A        10.8110    13.1990   -13.5760 hc         1 DD3       0.052367
     24 H13B        10.5850    11.5520   -14.1930 hc         1 DD3       0.052367
     25 H12         11.9600    12.8860   -15.7500 h1         1 DD3       0.057700
     26 H17         16.0460    16.0300   -12.9760 ha         1 DD3       0.132000
     27 H15         14.5470    12.0200   -13.2070 ha         1 DD3       0.137000
     28 H8          15.2740    12.5340   -18.8000 ha         1 DD3       0.112000
     29 H7          16.7090    10.5160   -18.7310 ha         1 DD3       0.133000
     30 H19         12.5820    15.1620   -15.3610 ha         1 DD3       0.116000
     31 H9          13.5420    12.9020   -17.1020 ha         1 DD3       0.117000
     32 H18         14.2270    16.7890   -14.4820 ha         1 DD3       0.121000
     33 HN22        13.8280     8.2130   -13.2620 hn         1 DD3       0.509500
     34 HN2A        13.1780     9.7180   -13.8700 hn         1 DD3       0.509500
     35 HN21        18.0320     6.6620   -16.5400 hn         1 DD3       0.484500
     36 HN2B        17.2550     6.1280   -15.1090 hn         1 DD3       0.484500
     37 H13         11.7460    11.8640   -12.8820 hc         1 DD3       0.052367
@<TRIPOS>BOND
     1     1     3 1   
     2     1     6 ar  
     3     1    13 ar  
     4     2     3 1   
     5     2    23 1   
     6     2    24 1   
     7     2    37 1   
     8     3    17 1   
     9     3    25 1   
    10     4     5 ar  
    11     4    16 ar  
    12     4    26 1   
    13     5     6 ar  
    14     5    15 1   
    15     6    27 1   
    16     7    12 ar  
    17     7    21 ar  
    18     8    11 ar  
    19     8    14 ar  
    20     8    17 1   
    21     9    10 ar  
    22     9    14 ar  
    23     9    28 1   
    24    10    18 ar  
    25    10    29 1   
    26    11    12 ar  
    27    11    18 ar  
    28    12    20 1   
    29    13    16 ar  
    30    13    30 1   
    31    14    31 1   
    32    16    32 1   
    33    18    19 ar  
    34    19    21 ar  
    35    20    33 1   
    36    20    34 1   
    37    21    22 1   
    38    22    35 1   
    39    22    36 1   
@<TRIPOS>SUBSTRUCTURE
     1 DD3         1 TEMP              0 ****  ****    0 ROOT
