@<TRIPOS>MOLECULE
DD4
   33    35     1     0     0
SMALL
abcg2


@<TRIPOS>ATOM
      1 C4          -2.7970     2.1990    10.4170 ca         1 DD4      -0.120500
      2 C5          -2.8340     1.0010    11.1300 ca         1 DD4      -0.113000
      3 C6          -4.0570     0.4490    11.4320 ca         1 DD4       0.156000
      4 N1          -0.3710     2.3070    10.4150 nc         1 DD4      -0.380300
      5 C7          -1.5180     2.8210    10.0800 cd         1 DD4       0.619500
      6 C8          -0.1330     4.1690     9.3260 cc         1 DD4       0.469300
      7 N2           2.0410     5.2510     8.7740 n7         1 DD4      -0.890400
      8 C9           0.6050     5.2820     8.6360 c5         1 DD4       0.161200
      9 C10          0.2430     6.6350     9.2560 c5         1 DD4      -0.075400
     10 C11          1.1510     6.6740    10.4750 c5         1 DD4       0.143300
     11 C12          2.4390     6.0310     9.9490 c5         1 DD4       0.131800
     12 F           -4.0840    -0.7040    12.1210 f          1 DD4      -0.179000
     13 C1          -5.2710     1.0190    11.0640 ca         1 DD4      -0.093300
     14 C           -6.5730     0.3730    11.4230 c3         1 DD4      -0.044800
     15 C3          -3.9890     2.8010    10.0290 ca         1 DD4      -0.076000
     16 C2          -5.2020     2.2120    10.3530 ca         1 DD4      -0.102000
     17 O            0.5410     3.1920     9.9110 os         1 DD4      -0.092700
     18 N           -1.4110     3.9890     9.3860 nd         1 DD4      -0.720000
     19 O1           0.5230     5.8990    11.4760 oh         1 DD4      -0.658000
     20 H1          -1.9260     0.5050    11.4460 ha         1 DD4       0.148000
     21 H4           0.3040     5.2410     7.5840 h1         1 DD4       0.098700
     22 H5           0.5100     7.4270     8.5550 hc         1 DD4       0.078700
     23 H6          -0.8130     6.7400     9.5000 hc         1 DD4       0.078700
     24 H7           1.3340     7.6960    10.8270 h1         1 DD4       0.053700
     25 H8           2.9230     5.4220    10.7190 h1         1 DD4       0.050200
     26 H9           3.1560     6.8070     9.6650 h1         1 DD4       0.050200
     27 H10         -6.6880     0.2750    12.5030 hc         1 DD4       0.049700
     28 H11         -7.4070     0.9650    11.0520 hc         1 DD4       0.049700
     29 H12         -6.6580    -0.6270    10.9960 hc         1 DD4       0.049700
     30 H13         -3.9730     3.7300     9.4760 ha         1 DD4       0.140000
     31 H14         -6.1240     2.6920    10.0490 ha         1 DD4       0.119000
     32 H15          1.1590     5.7260    12.1770 ho         1 DD4       0.447000
     33 H2           2.4500     4.3300     8.7350 hn         1 DD4       0.449000
@<TRIPOS>BOND
     1     1     2 ar  
     2     1     5 1   
     3     1    15 ar  
     4     2     3 ar  
     5     2    20 1   
     6     3    12 1   
     7     3    13 ar  
     8     4     5 2   
     9     4    17 1   
    10     5    18 1   
    11     6     8 1   
    12     6    17 1   
    13     6    18 2   
    14     7     8 1   
    15     7    11 1   
    16     7    33 1   
    17     8     9 1   
    18     8    21 1   
    19     9    10 1   
    20     9    22 1   
    21     9    23 1   
    22    10    11 1   
    23    10    19 1   
    24    10    24 1   
    25    11    25 1   
    26    11    26 1   
    27    13    14 1   
    28    13    16 ar  
    29    14    27 1   
    30    14    28 1   
    31    14    29 1   
    32    15    16 ar  
    33    15    30 1   
    34    16    31 1   
    35    19    32 1   
@<TRIPOS>SUBSTRUCTURE
     1 DD4         1 TEMP              0 ****  ****    0 ROOT
