@<TRIPOS>MOLECULE
DD4
   33    35     1     0     0
SMALL
No Charge or Current Charge


@<TRIPOS>ATOM
      1 C4          -2.8130     2.1800    10.4190 ca         1 DD4      -0.120500
      2 C5          -2.8510     0.9680    11.1490 ca         1 DD4      -0.113000
      3 C6          -4.0770     0.3640    11.4720 ca         1 DD4       0.156000
      4 N1          -0.3500     2.3130    10.4190 nc         1 DD4      -0.380300
      5 C7          -1.5230     2.8240    10.0740 cd         1 DD4       0.619500
      6 C8          -0.1430     4.2150     9.3010 cc         1 DD4       0.469300
      7 N2           2.0910     5.3450     8.6270 n7         1 DD4      -0.890400
      8 C9           0.5910     5.3620     8.5760 c5         1 DD4       0.161200
      9 C10          0.2990     6.7370     9.2340 c5         1 DD4      -0.075400
     10 C11          1.2430     6.7340    10.4720 c5         1 DD4       0.143300
     11 C12          2.4500     5.8520     9.9830 c5         1 DD4       0.131800
     12 F           -4.0760    -0.7940    12.1710 f          1 DD4      -0.179000
     13 C1          -5.2940     0.9510    11.0760 ca         1 DD4      -0.093300
     14 C           -6.6250     0.2950    11.4270 c3         1 DD4      -0.044800
     15 C3          -4.0400     2.7640    10.0250 ca         1 DD4      -0.076000
     16 C2          -5.2650     2.1560    10.3500 ca         1 DD4      -0.102000
     17 O            0.5880     3.2290     9.8960 os         1 DD4      -0.092700
     18 N           -1.4440     3.9990     9.3590 nd         1 DD4      -0.720000
     19 O1           0.5910     6.1810    11.6220 oh         1 DD4      -0.658000
     20 H1          -1.9320     0.4850    11.4720 ha         1 DD4       0.148000
     21 H4           0.2410     5.3560     7.5340 h1         1 DD4       0.098700
     22 H5           0.5630     7.5520     8.5510 hc         1 DD4       0.078700
     23 H6          -0.7560     6.8720     9.4980 hc         1 DD4       0.078700
     24 H7           1.5760     7.7580    10.6950 h1         1 DD4       0.053700
     25 H8           2.6190     5.0130    10.6740 h1         1 DD4       0.050200
     26 H9           3.3830     6.4310     9.9450 h1         1 DD4       0.050200
     27 H10         -6.7420     0.2030    12.5130 hc         1 DD4       0.049700
     28 H11         -7.4770     0.8720    11.0500 hc         1 DD4       0.049700
     29 H12         -6.6910    -0.7110    10.9960 hc         1 DD4       0.049700
     30 H13         -4.0500     3.6950     9.4620 ha         1 DD4       0.140000
     31 H14         -6.1940     2.6270    10.0340 ha         1 DD4       0.119000
     32 H15          1.1970     6.3080    12.3860 ho         1 DD4       0.447000
     33 H2           2.4630     4.3950     8.4740 hn         1 DD4       0.449000
@<TRIPOS>BOND
     1     1     2 ar  
     2     1     5 1   
     3     1    15 ar  
     4     2     3 ar  
     5     2    20 1   
     6     3    12 1   
     7     3    13 ar  
     8     4     5 2   
     9     4    17 1   
    10     5    18 1   
    11     6     8 1   
    12     6    17 1   
    13     6    18 2   
    14     7     8 1   
    15     7    11 1   
    16     7    33 1   
    17     8     9 1   
    18     8    21 1   
    19     9    10 1   
    20     9    22 1   
    21     9    23 1   
    22    10    11 1   
    23    10    19 1   
    24    10    24 1   
    25    11    25 1   
    26    11    26 1   
    27    13    14 1   
    28    13    16 ar  
    29    14    27 1   
    30    14    28 1   
    31    14    29 1   
    32    15    16 ar  
    33    15    30 1   
    34    16    31 1   
    35    19    32 1   
@<TRIPOS>SUBSTRUCTURE
     1 DD4         1 TEMP              0 ****  ****    0 ROOT
