@<TRIPOS>MOLECULE
DD5
   60    63     1     0     0
SMALL
No Charge or Current Charge


@<TRIPOS>ATOM
      1 C10          1.7610    -1.3220    -0.2020 ca         1 DD5      -0.063500
      2 C13          0.4470    -2.0000    -0.2280 cc         1 DD5       0.304500
      3 C15         -3.8880    -1.4510    -0.2900 c3         1 DD5       0.151300
      4 C17         -7.6410    -0.6140    -0.6790 c6         1 DD5       0.125300
      5 C20         -6.0000     0.6270     0.6660 c6         1 DD5       0.125300
      6 C21         -1.1610    -3.5050     0.1560 cd         1 DD5      -0.160000
      7 C22          0.1430    -3.2170     0.4150 cc         1 DD5      -0.210000
      8 C01          6.7070     0.2320     0.4720 c3         1 DD5       0.384300
      9 C02          4.2930    -0.0040    -0.1770 ca         1 DD5       0.043100
     10 C03          3.1960     0.5630    -0.8630 ca         1 DD5       0.158100
     11 O02          3.3670     1.7520    -1.5520 os         1 DD5      -0.328100
     12 C04          2.4950     2.7730    -0.9960 c5         1 DD5       0.167300
     13 C05          2.7270     4.0680    -1.8020 c5         1 DD5      -0.095900
     14 C06          2.0270     5.0820    -0.8660 c5         1 DD5      -0.078900
     15 C07          2.5790     4.6950     0.5400 c5         1 DD5      -0.078900
     16 C08          3.0160     3.1990     0.4090 c5         1 DD5      -0.095900
     17 C09          1.9530    -0.1010    -0.8890 ca         1 DD5      -0.178000
     18 C11          2.8580    -1.8670     0.5010 ca         1 DD5      -0.132000
     19 C12          4.1080    -1.2240     0.5110 ca         1 DD5      -0.074000
     20 N01         -0.5960    -1.5100    -0.8770 nd         1 DD5      -0.531800
     21 N02         -1.5960    -2.4420    -0.6360 na         1 DD5       0.145800
     22 C14         -2.9430    -2.2660    -1.2010 c3         1 DD5       0.050600
     23 C16         -5.2260    -1.0910    -0.9840 c3         1 DD5       0.132800
     24 N03         -6.2930    -0.6690    -0.0320 n3         1 DD5      -0.709600
     25 C18         -8.7500    -0.1940     0.3290 c6         1 DD5       0.153600
     26 O03         -8.4110     1.0690     0.9500 os         1 DD5      -0.448000
     27 C19         -7.1430     1.0250     1.6460 c6         1 DD5       0.153600
     28 F01          6.5120     0.1280     1.8080 f          1 DD5      -0.136500
     29 F02          7.1070    -0.9820     0.0270 f          1 DD5      -0.136500
     30 O04         -4.2230    -2.1870     0.8950 oh         1 DD5      -0.633000
     31 H01         -3.3840    -0.5110    -0.0220 h1         1 DD5       0.093700
     32 H20         -7.9030    -1.5960    -1.1000 h1         1 DD5       0.042700
     33 H26         -5.0630     0.5610     1.2360 h1         1 DD5       0.042700
     34 H25         -5.8730     1.4340    -0.0710 h1         1 DD5       0.042700
     35 H27         -1.7950    -4.3310     0.4560 h4         1 DD5       0.153000
     36 H28          0.8240    -3.8140     1.0090 ha         1 DD5       0.147000
     37 H02          7.5190     0.9460     0.2990 h3         1 DD5       0.099700
     38 H03          1.4390     2.4700    -0.9990 h1         1 DD5       0.048700
     39 H05          3.7930     4.2940    -1.9310 hc         1 DD5       0.059200
     40 H04          2.2670     4.0300    -2.7950 hc         1 DD5       0.059200
     41 H06          2.2530     6.1220    -1.1310 hc         1 DD5       0.043700
     42 H07          0.9360     4.9700    -0.9070 hc         1 DD5       0.043700
     43 H09          3.4330     5.3240     0.8180 hc         1 DD5       0.043700
     44 H08          1.8190     4.8330     1.3170 hc         1 DD5       0.043700
     45 H10          2.5940     2.5770     1.2060 hc         1 DD5       0.059200
     46 H11          4.1070     3.1100     0.4750 hc         1 DD5       0.059200
     47 H12          1.1350     0.3310    -1.4580 ha         1 DD5       0.137000
     48 H13          2.7610    -2.8020     1.0440 ha         1 DD5       0.120000
     49 H14          4.9170    -1.6940     1.0610 ha         1 DD5       0.131000
     50 H16         -3.3780    -3.2540    -1.3920 h1         1 DD5       0.066200
     51 H15         -2.8450    -1.7540    -2.1660 h1         1 DD5       0.066200
     52 H18         -5.0440    -0.3050    -1.7290 h1         1 DD5       0.036200
     53 H17         -5.5670    -1.9790    -1.5340 h1         1 DD5       0.036200
     54 H22         -9.7120    -0.0920    -0.1920 h1         1 DD5       0.053200
     55 H21         -8.8610    -0.9630     1.1070 h1         1 DD5       0.053200
     56 H24         -7.2040     0.2950     2.4670 h1         1 DD5       0.053200
     57 H23         -6.9360     2.0130     2.0820 h1         1 DD5       0.053200
     58 H29         -5.1570    -1.9090     1.0610 ho         1 DD5       0.443000
     59 O01          5.5080     0.6730    -0.2020 os         1 DD5      -0.375100
     60 H19         -7.6340     0.1030    -1.5140 h1         1 DD5       0.042700
@<TRIPOS>BOND
     1     1     2 1   
     2     1    17 ar  
     3     1    18 ar  
     4     2     7 1   
     5     2    20 2   
     6     3    22 1   
     7     3    23 1   
     8     3    30 1   
     9     3    31 1   
    10     4    24 1   
    11     4    25 1   
    12     4    32 1   
    13     4    60 1   
    14     5    24 1   
    15     5    27 1   
    16     5    33 1   
    17     5    34 1   
    18     6     7 2   
    19     6    21 1   
    20     6    35 1   
    21     7    36 1   
    22     8    28 1   
    23     8    29 1   
    24     8    37 1   
    25     8    59 1   
    26     9    10 ar  
    27     9    19 ar  
    28     9    59 1   
    29    10    11 1   
    30    10    17 ar  
    31    11    12 1   
    32    12    13 1   
    33    12    16 1   
    34    12    38 1   
    35    13    14 1   
    36    13    39 1   
    37    13    40 1   
    38    14    15 1   
    39    14    41 1   
    40    14    42 1   
    41    15    16 1   
    42    15    43 1   
    43    15    44 1   
    44    16    45 1   
    45    16    46 1   
    46    17    47 1   
    47    18    19 ar  
    48    18    48 1   
    49    19    49 1   
    50    20    21 1   
    51    21    22 1   
    52    22    50 1   
    53    22    51 1   
    54    23    24 1   
    55    23    52 1   
    56    23    53 1   
    57    25    26 1   
    58    25    54 1   
    59    25    55 1   
    60    26    27 1   
    61    27    56 1   
    62    27    57 1   
    63    30    58 1   
@<TRIPOS>SUBSTRUCTURE
     1 DD5         1 TEMP              0 ****  ****    0 ROOT
