@<TRIPOS>MOLECULE
DD5
   60    63     1     0     0
SMALL
abcg2


@<TRIPOS>ATOM
      1 C10          1.8530    -1.6400    -0.4080 ca         1 DD5      -0.063500
      2 C13          0.5640    -2.3190    -0.5670 cc         1 DD5       0.304500
      3 C15         -3.5120    -1.4240    -0.2560 c3         1 DD5       0.151300
      4 C17         -7.0210    -0.0680    -0.1180 c6         1 DD5       0.125300
      5 C20         -5.0830     0.9130     0.8400 c6         1 DD5       0.125300
      6 C21         -1.0980    -3.7600    -0.6090 cd         1 DD5      -0.160000
      7 C22          0.2340    -3.6600    -0.2850 cc         1 DD5      -0.210000
      8 C01          5.8730     0.7760     1.2250 c3         1 DD5       0.384300
      9 C02          4.2820    -0.3250    -0.0950 ca         1 DD5       0.043100
     10 C03          3.1570     0.4030    -0.5070 ca         1 DD5       0.158100
     11 O02          3.3520     1.7060    -0.7500 os         1 DD5      -0.328100
     12 C04          2.2510     2.5490    -1.0490 c5         1 DD5       0.167300
     13 C05          2.7620     3.9050    -1.5110 c5         1 DD5      -0.095900
     14 C06          1.5280     4.8080    -1.3950 c5         1 DD5      -0.078900
     15 C07          0.6280     4.1560    -0.3140 c5         1 DD5      -0.078900
     16 C08          1.3710     2.8960     0.1490 c5         1 DD5      -0.095900
     17 C09          1.9510    -0.2690    -0.6570 ca         1 DD5      -0.178000
     18 C11          2.9860    -2.3430    -0.0130 ca         1 DD5      -0.132000
     19 C12          4.1950    -1.6810     0.1430 ca         1 DD5      -0.074000
     20 N01         -0.4940    -1.6680    -1.0290 nd         1 DD5      -0.531800
     21 N02         -1.4810    -2.5510    -1.0580 na         1 DD5       0.145800
     22 C14         -2.8130    -2.1310    -1.4170 c3         1 DD5       0.050600
     23 C16         -4.8690    -0.9130    -0.7290 c3         1 DD5       0.132800
     24 N03         -5.6600    -0.3150     0.3230 n3         1 DD5      -0.709600
     25 C18         -7.8450     0.5080     1.0170 c6         1 DD5       0.153600
     26 O03         -7.2750     1.6950     1.5230 os         1 DD5      -0.448000
     27 C19         -5.9510     1.4700     1.9520 c6         1 DD5       0.153600
     28 F01          4.9070     1.5170     1.8120 f          1 DD5      -0.136500
     29 F02          6.0940    -0.2610     2.0730 f          1 DD5      -0.136500
     30 O04         -3.5990    -2.2550     0.8730 oh         1 DD5      -0.633000
     31 H01         -2.8800    -0.5810     0.0390 h1         1 DD5       0.093700
     32 H20         -7.4750    -1.0080    -0.4410 h1         1 DD5       0.042700
     33 H26         -4.0910     0.7230     1.2520 h1         1 DD5       0.042700
     34 H25         -4.9680     1.6720     0.0460 h1         1 DD5       0.042700
     35 H27         -1.7830    -4.5900    -0.5590 h4         1 DD5       0.153000
     36 H28          0.8650    -4.4460     0.0950 ha         1 DD5       0.147000
     37 H02          6.7830     1.3610     1.1190 h3         1 DD5       0.099700
     38 H03          1.6440     2.1030    -1.8480 h1         1 DD5       0.048700
     39 H05          3.5500     4.2390    -0.8310 hc         1 DD5       0.059200
     40 H04          3.1810     3.8800    -2.5180 hc         1 DD5       0.059200
     41 H06          1.8070     5.8290    -1.1380 hc         1 DD5       0.043700
     42 H07          1.0010     4.8560    -2.3480 hc         1 DD5       0.043700
     43 H09          0.4310     4.8290     0.5200 hc         1 DD5       0.043700
     44 H08         -0.3400     3.8900    -0.7390 hc         1 DD5       0.043700
     45 H10          0.6940     2.0940     0.4460 hc         1 DD5       0.059200
     46 H11          2.0180     3.1140     1.0020 hc         1 DD5       0.059200
     47 H12          1.0610     0.2600    -0.9690 ha         1 DD5       0.137000
     48 H13          2.9400    -3.4080     0.1750 ha         1 DD5       0.120000
     49 H14          5.0800    -2.2320     0.4330 ha         1 DD5       0.131000
     50 H16         -3.3750    -3.0140    -1.7250 h1         1 DD5       0.066200
     51 H15         -2.7420    -1.4670    -2.2800 h1         1 DD5       0.066200
     52 H18         -4.7060    -0.2180    -1.5710 h1         1 DD5       0.036200
     53 H17         -5.4390    -1.7580    -1.1330 h1         1 DD5       0.036200
     54 H22         -8.8480     0.7500     0.6640 h1         1 DD5       0.053200
     55 H21         -7.9390    -0.2430     1.8150 h1         1 DD5       0.053200
     56 H24         -5.9360     0.7750     2.8040 h1         1 DD5       0.053200
     57 H23         -5.5500     2.4260     2.2920 h1         1 DD5       0.053200
     58 H29         -4.3410    -2.8580     0.7600 ho         1 DD5       0.443000
     59 O01          5.4920     0.3350     0.0030 os         1 DD5      -0.375100
     60 H19         -7.0520     0.6210    -0.9820 h1         1 DD5       0.042700
@<TRIPOS>BOND
     1     1     2 1   
     2     1    17 ar  
     3     1    18 ar  
     4     2     7 1   
     5     2    20 2   
     6     3    22 1   
     7     3    23 1   
     8     3    30 1   
     9     3    31 1   
    10     4    24 1   
    11     4    25 1   
    12     4    32 1   
    13     4    60 1   
    14     5    24 1   
    15     5    27 1   
    16     5    33 1   
    17     5    34 1   
    18     6     7 2   
    19     6    21 1   
    20     6    35 1   
    21     7    36 1   
    22     8    28 1   
    23     8    29 1   
    24     8    37 1   
    25     8    59 1   
    26     9    10 ar  
    27     9    19 ar  
    28     9    59 1   
    29    10    11 1   
    30    10    17 ar  
    31    11    12 1   
    32    12    13 1   
    33    12    16 1   
    34    12    38 1   
    35    13    14 1   
    36    13    39 1   
    37    13    40 1   
    38    14    15 1   
    39    14    41 1   
    40    14    42 1   
    41    15    16 1   
    42    15    43 1   
    43    15    44 1   
    44    16    45 1   
    45    16    46 1   
    46    17    47 1   
    47    18    19 ar  
    48    18    48 1   
    49    19    49 1   
    50    20    21 1   
    51    21    22 1   
    52    22    50 1   
    53    22    51 1   
    54    23    24 1   
    55    23    52 1   
    56    23    53 1   
    57    25    26 1   
    58    25    54 1   
    59    25    55 1   
    60    26    27 1   
    61    27    56 1   
    62    27    57 1   
    63    30    58 1   
@<TRIPOS>SUBSTRUCTURE
     1 DD5         1 TEMP              0 ****  ****    0 ROOT
