@<TRIPOS>MOLECULE
DD6
   97    99     1     0     0
SMALL
No Charge or Current Charge


@<TRIPOS>ATOM
      1 C            3.0010     3.1460     1.1370 c3         1 DD6      -0.054900
      2 C1           3.0680     1.8110     0.3980 ce         1 DD6      -0.068200
      3 C10         -6.8390     1.2990    -0.4220 ce         1 DD6      -0.196000
      4 C11         -8.0570     0.9850    -0.9480 cf         1 DD6      -0.041200
      5 C12         -8.2290    -0.0000    -2.0940 c3         1 DD6      -0.053900
      6 C13         -9.2520     1.7020    -0.5140 cf         1 DD6      -0.161000
      7 C14        -10.4220     1.1690    -0.0720 c2         1 DD6      -0.202200
      8 C15        -10.8320    -0.2850     0.1720 cx         1 DD6       0.148200
      9 C16        -12.0610    -0.8230    -0.6530 c6         1 DD6      -0.018000
     10 C17        -13.0390    -1.6210     0.2680 c6         1 DD6      -0.071400
     11 C18        -12.3170    -2.6730     1.1450 c6         1 DD6       0.174300
     12 C19        -11.4220    -1.9750     2.1870 c6         1 DD6      -0.103400
     13 C2           1.9550     1.1450    -0.0320 cf         1 DD6      -0.171000
     14 C20        -10.5150    -0.8820     1.5490 cx         1 DD6       0.117000
     15 C21         -9.7390    -0.0570     2.5710 c3         1 DD6      -0.079100
     16 C22        -11.5830    -1.7400    -1.8300 c3         1 DD6      -0.083100
     17 C23        -12.8710     0.3340    -1.3260 c3         1 DD6      -0.083100
     18 C24          4.4100     1.2740     0.0920 ce         1 DD6      -0.168000
     19 C25          5.5990     1.6670     0.6310 cf         1 DD6      -0.176000
     20 C26          6.8880     1.0740     0.2770 cf         1 DD6      -0.168000
     21 C27          8.1220     1.4020     0.7640 ce         1 DD6       0.047100
     22 C28          8.4260     2.4770     1.7990 c3         1 DD6      -0.049900
     23 C29          9.2910     0.7160     0.3070 cg         1 DD6      -0.171300
     24 C3           0.5590     1.5230     0.1760 cf         1 DD6      -0.177000
     25 C30         10.3260     0.1700    -0.0400 ch         1 DD6      -0.133300
     26 C31         11.5740    -0.4570    -0.3800 cf         1 DD6       0.025100
     27 C32         12.7920     0.0920     0.4370 c6         1 DD6       0.005200
     28 C33         14.1320    -0.4010    -0.1940 c6         1 DD6      -0.069400
     29 C34         14.1060    -1.9040    -0.5460 c6         1 DD6       0.175300
     30 C35         13.0530    -2.1740    -1.6390 c6         1 DD6      -0.082200
     31 C36         11.7060    -1.4730    -1.3060 c2         1 DD6      -0.079400
     32 C37         10.5520    -2.0420    -2.1210 c3         1 DD6      -0.057900
     33 C4          -0.5010     0.8410    -0.3340 ce         1 DD6      -0.165000
     34 C40         12.6650    -0.4070     1.9130 c3         1 DD6      -0.082100
     35 C41         12.8140     1.6580     0.4610 c3         1 DD6      -0.082100
     36 C5          -1.9070     1.2240    -0.1230 ce         1 DD6      -0.184000
     37 C6          -3.0210     0.5590    -0.5520 cf         1 DD6      -0.055200
     38 C7          -2.9490    -0.7760    -1.2890 c3         1 DD6      -0.056900
     39 C8          -4.3520     1.0940    -0.2470 cf         1 DD6      -0.186000
     40 C9          -5.5440     0.7030    -0.7830 ce         1 DD6      -0.159000
     41 O1          -9.7690    -1.2560     0.3780 op         1 DD6      -0.432000
     42 O2         -13.2860    -3.4850     1.8160 oh         1 DD6      -0.661000
     43 O4          15.3970    -2.3200    -1.0020 oh         1 DD6      -0.659000
     44 H1           3.8500     3.7930     0.8920 hc         1 DD6       0.042033
     45 H2           2.1090     3.7240     0.8730 hc         1 DD6       0.042033
     46 H3           2.9940     2.9960     2.2230 hc         1 DD6       0.042033
     47 H4          -6.8120     2.0600     0.3600 ha         1 DD6       0.167000
     48 H5          -8.2010    -1.0380    -1.7440 hc         1 DD6       0.047033
     49 H6          -9.1790     0.1600    -2.6140 hc         1 DD6       0.047033
     50 H7          -7.4420     0.1190    -2.8480 hc         1 DD6       0.047033
     51 H8          -9.1610     2.7900    -0.5190 ha         1 DD6       0.172000
     52 H9         -11.1640     1.9370     0.2220 ha         1 DD6       0.177000
     53 H10        -13.5850    -0.9270     0.9220 hc         1 DD6       0.056200
     54 H11        -13.8040    -2.1170    -0.3460 hc         1 DD6       0.056200
     55 H12        -11.6900    -3.3090     0.5040 h1         1 DD6       0.047700
     56 H13        -12.0510    -1.4970     2.9510 hc         1 DD6       0.056700
     57 H14        -10.7960    -2.7110     2.7090 hc         1 DD6       0.056700
     58 H15          2.1110     0.2140    -0.5810 ha         1 DD6       0.169000
     59 H16         -9.3910    -0.6810     3.4030 hc         1 DD6       0.048700
     60 H17         -8.8590     0.4150     2.1200 hc         1 DD6       0.048700
     61 H18        -10.3730     0.7340     2.9860 hc         1 DD6       0.048700
     62 H19        -10.9750    -2.5850    -1.4870 hc         1 DD6       0.038700
     63 H20        -12.4340    -2.1600    -2.3800 hc         1 DD6       0.038700
     64 H21        -10.9820    -1.1820    -2.5550 hc         1 DD6       0.038700
     65 H22        -12.2590     0.9030    -2.0370 hc         1 DD6       0.038700
     66 H23        -13.7330    -0.0530    -1.8830 hc         1 DD6       0.038700
     67 H24        -13.2610     1.0380    -0.5820 hc         1 DD6       0.038700
     68 H25          4.4360     0.4600    -0.6350 ha         1 DD6       0.170000
     69 H26          5.5970     2.4580     1.3810 ha         1 DD6       0.174000
     70 H27          6.8500     0.2750    -0.4660 ha         1 DD6       0.176000
     71 H28          9.1120     3.2300     1.3930 hc         1 DD6       0.045033
     72 H29          7.5370     3.0110     2.1440 hc         1 DD6       0.045033
     73 H30          8.9030     2.0440     2.6870 hc         1 DD6       0.045033
     74 H31          0.3500     2.4010     0.7890 ha         1 DD6       0.172000
     75 H33         14.3430     0.1710    -1.1090 hc         1 DD6       0.056700
     76 H34         14.9660    -0.1930     0.4900 hc         1 DD6       0.056700
     77 H35         13.8350    -2.4750     0.3540 h1         1 DD6       0.034700
     78 H36         13.4130    -1.8090    -2.6110 hc         1 DD6       0.054700
     79 H37         12.9020    -3.2570    -1.7420 hc         1 DD6       0.054700
     80 H39         10.7980    -2.0550    -3.1900 hc         1 DD6       0.045033
     81 H40         10.3310    -3.0720    -1.8190 hc         1 DD6       0.045033
     82 H41          9.6280    -1.4650    -2.0140 hc         1 DD6       0.045033
     83 H42         -0.2980    -0.0380    -0.9470 ha         1 DD6       0.171000
     84 H43         12.5760    -1.4980     1.9660 hc         1 DD6       0.037700
     85 H44         13.5380    -0.1160     2.5100 hc         1 DD6       0.037700
     86 H45         11.7810     0.0120     2.4090 hc         1 DD6       0.037700
     87 H46         11.9700     2.0830     1.0170 hc         1 DD6       0.037700
     88 H47         13.7270     2.0330     0.9400 hc         1 DD6       0.037700
     89 H48         12.7830     2.0700    -0.5550 hc         1 DD6       0.037700
     90 H49         -2.0570     2.1550     0.4260 ha         1 DD6       0.169000
     91 H50         -3.8040    -1.4210    -1.0560 hc         1 DD6       0.043033
     92 H51         -2.9250    -0.6260    -2.3750 hc         1 DD6       0.043033
     93 H52         -2.0630    -1.3570    -1.0110 hc         1 DD6       0.043033
     94 H53         -4.3810     1.9110     0.4770 ha         1 DD6       0.169000
     95 H54         -5.5560    -0.0920    -1.5280 ha         1 DD6       0.174000
     96 H55        -12.7870    -4.1780     2.3010 ho         1 DD6       0.443000
     97 H56         15.3450    -3.2900    -1.1490 ho         1 DD6       0.441000
@<TRIPOS>BOND
     1     1     2 1   
     2     1    44 1   
     3     1    45 1   
     4     1    46 1   
     5     2    13 2   
     6     2    18 1   
     7     3     4 2   
     8     3    40 1   
     9     3    47 1   
    10     4     5 1   
    11     4     6 1   
    12     5    48 1   
    13     5    49 1   
    14     5    50 1   
    15     6     7 2   
    16     6    51 1   
    17     7     8 1   
    18     7    52 1   
    19     8     9 1   
    20     8    14 1   
    21     8    41 1   
    22     9    10 1   
    23     9    16 1   
    24     9    17 1   
    25    10    11 1   
    26    10    53 1   
    27    10    54 1   
    28    11    12 1   
    29    11    42 1   
    30    11    55 1   
    31    12    14 1   
    32    12    56 1   
    33    12    57 1   
    34    13    24 1   
    35    13    58 1   
    36    14    15 1   
    37    14    41 1   
    38    15    59 1   
    39    15    60 1   
    40    15    61 1   
    41    16    62 1   
    42    16    63 1   
    43    16    64 1   
    44    17    65 1   
    45    17    66 1   
    46    17    67 1   
    47    18    19 2   
    48    18    68 1   
    49    19    20 1   
    50    19    69 1   
    51    20    21 2   
    52    20    70 1   
    53    21    22 1   
    54    21    23 1   
    55    22    71 1   
    56    22    72 1   
    57    22    73 1   
    58    23    25 3   
    59    24    33 2   
    60    24    74 1   
    61    25    26 1   
    62    26    27 1   
    63    26    31 2   
    64    27    28 1   
    65    27    34 1   
    66    27    35 1   
    67    28    29 1   
    68    28    75 1   
    69    28    76 1   
    70    29    30 1   
    71    29    43 1   
    72    29    77 1   
    73    30    31 1   
    74    30    78 1   
    75    30    79 1   
    76    31    32 1   
    77    32    80 1   
    78    32    81 1   
    79    32    82 1   
    80    33    36 1   
    81    33    83 1   
    82    34    84 1   
    83    34    85 1   
    84    34    86 1   
    85    35    87 1   
    86    35    88 1   
    87    35    89 1   
    88    36    37 2   
    89    36    90 1   
    90    37    38 1   
    91    37    39 1   
    92    38    91 1   
    93    38    92 1   
    94    38    93 1   
    95    39    40 2   
    96    39    94 1   
    97    40    95 1   
    98    42    96 1   
    99    43    97 1   
@<TRIPOS>SUBSTRUCTURE
     1 DD6         1 TEMP              0 ****  ****    0 ROOT
