@<TRIPOS>MOLECULE
DD6
   97    99     1     0     0
SMALL
abcg2


@<TRIPOS>ATOM
      1 C            2.8590     2.6910     1.7140 c3         1 DD6      -0.054900
      2 C1           2.9640     1.5260     0.7760 ce         1 DD6      -0.068200
      3 C10         -6.6660     1.1930    -0.8940 ce         1 DD6      -0.196000
      4 C11         -7.8720     0.7750    -1.3350 cf         1 DD6      -0.041200
      5 C12         -8.0620    -0.3660    -2.2890 c3         1 DD6      -0.053900
      6 C13         -9.0520     1.5630    -0.9290 cf         1 DD6      -0.161000
      7 C14        -10.2040     1.1700    -0.3830 c2         1 DD6      -0.202200
      8 C15        -10.6170    -0.1770     0.0880 cx         1 DD6       0.148200
      9 C16        -11.9020    -0.7520    -0.5480 c6         1 DD6      -0.018000
     10 C17        -12.7060    -1.6000     0.4530 c6         1 DD6      -0.071400
     11 C18        -11.8550    -2.4850     1.3390 c6         1 DD6       0.174300
     12 C19        -10.9950    -1.5980     2.2270 c6         1 DD6      -0.103400
     13 C2           1.8950     0.9520     0.1630 cf         1 DD6      -0.171000
     14 C20        -10.1910    -0.5850     1.4520 cx         1 DD6       0.117000
     15 C21         -9.3450     0.3090     2.3200 c3         1 DD6      -0.079100
     16 C22        -11.5110    -1.5950    -1.7660 c3         1 DD6      -0.083100
     17 C23        -12.8300     0.3710    -1.0240 c3         1 DD6      -0.083100
     18 C24          4.2740     0.9840     0.5020 ce         1 DD6      -0.168000
     19 C25          5.4370     1.4240     1.0340 cf         1 DD6      -0.176000
     20 C26          6.7080     0.8540     0.6820 cf         1 DD6      -0.168000
     21 C27          7.9190     1.2320     1.1590 ce         1 DD6       0.047100
     22 C28          8.1550     2.3080     2.1820 c3         1 DD6      -0.049900
     23 C29          9.0880     0.6000     0.6630 cg         1 DD6      -0.171300
     24 C3           0.5200     1.3360     0.2760 cf         1 DD6      -0.177000
     25 C30         10.1100     0.1070     0.2360 ch         1 DD6      -0.133300
     26 C31         11.3330    -0.4240    -0.2540 cf         1 DD6       0.025100
     27 C32         12.6030     0.1890     0.3310 c6         1 DD6       0.005200
     28 C33         13.8190    -0.2120    -0.5110 c6         1 DD6      -0.069400
     29 C34         13.8240    -1.6830    -0.8650 c6         1 DD6       0.175300
     30 C35         12.6040    -1.9920    -1.7170 c6         1 DD6      -0.082200
     31 C36         11.3320    -1.4100    -1.1750 c2         1 DD6      -0.079400
     32 C37         10.0830    -1.9920    -1.7550 c3         1 DD6      -0.057900
     33 C4          -0.4780     0.6840    -0.3680 ce         1 DD6      -0.165000
     34 C40         12.7660    -0.2760     1.7830 c3         1 DD6      -0.082100
     35 C41         12.5040     1.7180     0.3180 c3         1 DD6      -0.082100
     36 C5          -1.8540     1.0720    -0.2700 ce         1 DD6      -0.184000
     37 C6          -2.9200     0.4810    -0.8720 cf         1 DD6      -0.055200
     38 C7          -2.8100    -0.7240    -1.7580 c3         1 DD6      -0.056900
     39 C8          -4.2320     1.0460    -0.6460 cf         1 DD6      -0.186000
     40 C9          -5.3890     0.5850    -1.1680 ce         1 DD6      -0.159000
     41 O1          -9.5630    -1.1060     0.2910 op         1 DD6      -0.432000
     42 O2         -12.7220    -3.2980     2.1070 oh         1 DD6      -0.661000
     43 O4          15.0280    -1.9710    -1.5470 oh         1 DD6      -0.659000
     44 H1           3.4560     3.5330     1.3590 hc         1 DD6       0.042033
     45 H2           1.8390     3.0440     1.8370 hc         1 DD6       0.042033
     46 H3           3.2370     2.4300     2.7040 hc         1 DD6       0.042033
     47 H4          -6.6430     2.0630    -0.2410 ha         1 DD6       0.167000
     48 H5          -8.4590    -1.2470    -1.7870 hc         1 DD6       0.047033
     49 H6          -8.7800    -0.0930    -3.0640 hc         1 DD6       0.047033
     50 H7          -7.1370    -0.6550    -2.7840 hc         1 DD6       0.047033
     51 H8          -8.9470     2.6350    -1.0760 ha         1 DD6       0.172000
     52 H9         -10.9310     1.9490    -0.1800 ha         1 DD6       0.177000
     53 H10        -13.2870    -0.9340     1.1010 hc         1 DD6       0.056200
     54 H11        -13.4270    -2.2050    -0.1060 hc         1 DD6       0.056200
     55 H12        -11.2060    -3.1160     0.7180 h1         1 DD6       0.047700
     56 H13        -11.6430    -1.0670     2.9330 hc         1 DD6       0.056700
     57 H14        -10.3050    -2.2040     2.8260 hc         1 DD6       0.056700
     58 H15          2.0910     0.1060    -0.4920 ha         1 DD6       0.169000
     59 H16         -8.7090    -0.2950     2.9700 hc         1 DD6       0.048700
     60 H17         -8.7060     0.9700     1.7400 hc         1 DD6       0.048700
     61 H18         -9.9820     0.9220     2.9590 hc         1 DD6       0.048700
     62 H19        -10.8980    -2.4540    -1.4970 hc         1 DD6       0.038700
     63 H20        -12.4090    -1.9710    -2.2610 hc         1 DD6       0.038700
     64 H21        -10.9560    -1.0020    -2.4940 hc         1 DD6       0.038700
     65 H22        -12.3890     0.9570    -1.8310 hc         1 DD6       0.038700
     66 H23        -13.7600    -0.0600    -1.3990 hc         1 DD6       0.038700
     67 H24        -13.0910     1.0540    -0.2120 hc         1 DD6       0.038700
     68 H25          4.3130     0.1560    -0.2020 ha         1 DD6       0.170000
     69 H26          5.4200     2.2450     1.7400 ha         1 DD6       0.174000
     70 H27          6.6870     0.0550    -0.0520 ha         1 DD6       0.176000
     71 H28          8.7390     3.1230     1.7530 hc         1 DD6       0.045033
     72 H29          7.2320     2.7270     2.5760 hc         1 DD6       0.045033
     73 H30          8.7280     1.9140     3.0220 hc         1 DD6       0.045033
     74 H31          0.2610     2.1880     0.8960 ha         1 DD6       0.172000
     75 H33         13.8200     0.3700    -1.4400 hc         1 DD6       0.056700
     76 H34         14.7310     0.0570     0.0330 hc         1 DD6       0.056700
     77 H35         13.7640    -2.2790     0.0560 h1         1 DD6       0.034700
     78 H36         12.7640    -1.6030    -2.7310 hc         1 DD6       0.054700
     79 H37         12.4800    -3.0750    -1.8290 hc         1 DD6       0.054700
     80 H39         10.0890    -1.8910    -2.8440 hc         1 DD6       0.045033
     81 H40         10.0300    -3.0640    -1.5460 hc         1 DD6       0.045033
     82 H41          9.1760    -1.5260    -1.3760 hc         1 DD6       0.045033
     83 H42         -0.2170    -0.1690    -0.9850 ha         1 DD6       0.171000
     84 H43         12.8770    -1.3590     1.8600 hc         1 DD6       0.037700
     85 H44         13.6470     0.1850     2.2340 hc         1 DD6       0.037700
     86 H45         11.9000     0.0090     2.3830 hc         1 DD6       0.037700
     87 H46         11.7180     2.0770     0.9830 hc         1 DD6       0.037700
     88 H47         13.4470     2.1570     0.6500 hc         1 DD6       0.037700
     89 H48         12.2960     2.0940    -0.6850 hc         1 DD6       0.037700
     90 H49         -2.0530     1.9390     0.3550 ha         1 DD6       0.169000
     91 H50         -3.4140    -1.5470    -1.3730 hc         1 DD6       0.043033
     92 H51         -3.1800    -0.5040    -2.7620 hc         1 DD6       0.043033
     93 H52         -1.7900    -1.0870    -1.8570 hc         1 DD6       0.043033
     94 H53         -4.2720     1.9150     0.0060 ha         1 DD6       0.169000
     95 H54         -5.3660    -0.2870    -1.8120 ha         1 DD6       0.174000
     96 H55        -12.1830    -3.8850     2.6460 ho         1 DD6       0.443000
     97 H56         15.0420    -2.9120    -1.7480 ho         1 DD6       0.441000
@<TRIPOS>BOND
     1     1     2 1   
     2     1    44 1   
     3     1    45 1   
     4     1    46 1   
     5     2    13 2   
     6     2    18 1   
     7     3     4 2   
     8     3    40 1   
     9     3    47 1   
    10     4     5 1   
    11     4     6 1   
    12     5    48 1   
    13     5    49 1   
    14     5    50 1   
    15     6     7 2   
    16     6    51 1   
    17     7     8 1   
    18     7    52 1   
    19     8     9 1   
    20     8    14 1   
    21     8    41 1   
    22     9    10 1   
    23     9    16 1   
    24     9    17 1   
    25    10    11 1   
    26    10    53 1   
    27    10    54 1   
    28    11    12 1   
    29    11    42 1   
    30    11    55 1   
    31    12    14 1   
    32    12    56 1   
    33    12    57 1   
    34    13    24 1   
    35    13    58 1   
    36    14    15 1   
    37    14    41 1   
    38    15    59 1   
    39    15    60 1   
    40    15    61 1   
    41    16    62 1   
    42    16    63 1   
    43    16    64 1   
    44    17    65 1   
    45    17    66 1   
    46    17    67 1   
    47    18    19 2   
    48    18    68 1   
    49    19    20 1   
    50    19    69 1   
    51    20    21 2   
    52    20    70 1   
    53    21    22 1   
    54    21    23 1   
    55    22    71 1   
    56    22    72 1   
    57    22    73 1   
    58    23    25 3   
    59    24    33 2   
    60    24    74 1   
    61    25    26 1   
    62    26    27 1   
    63    26    31 2   
    64    27    28 1   
    65    27    34 1   
    66    27    35 1   
    67    28    29 1   
    68    28    75 1   
    69    28    76 1   
    70    29    30 1   
    71    29    43 1   
    72    29    77 1   
    73    30    31 1   
    74    30    78 1   
    75    30    79 1   
    76    31    32 1   
    77    32    80 1   
    78    32    81 1   
    79    32    82 1   
    80    33    36 1   
    81    33    83 1   
    82    34    84 1   
    83    34    85 1   
    84    34    86 1   
    85    35    87 1   
    86    35    88 1   
    87    35    89 1   
    88    36    37 2   
    89    36    90 1   
    90    37    38 1   
    91    37    39 1   
    92    38    91 1   
    93    38    92 1   
    94    38    93 1   
    95    39    40 2   
    96    39    94 1   
    97    40    95 1   
    98    42    96 1   
    99    43    97 1   
@<TRIPOS>SUBSTRUCTURE
     1 DD6         1 TEMP              0 ****  ****    0 ROOT
