@<TRIPOS>MOLECULE
DD7
   45    48     1     0     0
SMALL
bcc


@<TRIPOS>ATOM
      1 C4          -5.3310    -0.1730     7.4280 ca         1 DD7      -0.119000
      2 C5          -5.8930    -1.4430     7.4260 ca         1 DD7      -0.131500
      3 C6          -4.5700     1.9200     6.2130 c3         1 DD7       0.228100
      4 C7          -3.8570     3.7350     7.7370 c6         1 DD7       0.177500
      5 C8          -3.8990     4.0650     9.2500 c5         1 DD7       0.095100
      6 C9          -2.5170     4.2980     9.8550 c5         1 DD7       0.107400
      7 C10         -3.4850     6.2080     9.0720 c5         1 DD7       0.334900
      8 C11         -3.4190     6.2290     7.5340 c6         1 DD7      -0.068600
      9 C12         -4.1480     5.0140     6.9370 c6         1 DD7       0.133100
     10 C13         -2.8860     8.8950     6.9540 ca         1 DD7       0.007900
     11 C14         -2.9680     9.9310     7.8780 ca         1 DD7      -0.086000
     12 C15         -1.9470    10.8700     7.9590 ca         1 DD7      -0.136500
     13 O2          -3.7720     4.8050     5.6000 oh         1 DD7      -0.597800
     14 N           -4.7420     2.6250     7.4630 n7         1 DD7      -0.839200
     15 C3          -5.2120     0.5530     6.2460 ca         1 DD7      -0.089300
     16 C2          -5.6720    -0.0220     5.0630 ca         1 DD7      -0.119000
     17 C1          -6.2290    -1.2940     5.0560 ca         1 DD7      -0.131500
     18 C           -6.3430    -2.0100     6.2410 ca         1 DD7      -0.129000
     19 O           -2.2940     5.6810     9.6100 os         1 DD7      -0.422600
     20 O1          -4.4990     5.3360     9.4750 os         1 DD7      -0.394600
     21 S           -4.2070     7.7200     6.8290 ss         1 DD7      -0.301000
     22 C18         -1.7830     8.8040     6.1080 ca         1 DD7      -0.086000
     23 C17         -0.7600     9.7350     6.2020 ca         1 DD7      -0.136500
     24 C16         -0.8420    10.7710     7.1260 ca         1 DD7      -0.103000
     25 H1          -4.9900     0.2670     8.3570 ha         1 DD7       0.134500
     26 H2          -5.9830    -1.9920     8.3550 ha         1 DD7       0.128500
     27 H3          -3.4950     1.7960     6.0450 h1         1 DD7       0.046700
     28 H4          -4.9470     2.4610     5.3360 h1         1 DD7       0.046700
     29 H5          -2.8450     3.4040     7.4770 h1         1 DD7       0.078700
     30 H6          -4.4710     3.3050     9.7820 h1         1 DD7       0.109700
     31 H7          -2.5150     4.1030    10.9310 h1         1 DD7       0.061700
     32 H8          -1.7370     3.6930     9.3910 h1         1 DD7       0.061700
     33 H9          -3.6680     7.2000     9.4900 h2         1 DD7       0.113700
     34 H10         -2.3760     6.2230     7.2090 h1         1 DD7       0.100700
     35 H11         -5.2310     5.1970     7.0100 h1         1 DD7       0.050700
     36 H12         -3.8260    10.0020     8.5360 ha         1 DD7       0.142000
     37 H13         -2.0150    11.6740     8.6790 ha         1 DD7       0.135500
     38 H14         -4.0590     5.5690     5.0860 ho         1 DD7       0.421000
     39 H15         -5.7100     2.8960     7.5900 hn         1 DD7       0.370800
     40 H17         -5.5950     0.5330     4.1350 ha         1 DD7       0.134500
     41 H18         -6.5800    -1.7220     4.1260 ha         1 DD7       0.128500
     42 H19         -6.7840    -2.9990     6.2410 ha         1 DD7       0.129000
     43 H20         -1.7270     8.0070     5.3770 ha         1 DD7       0.142000
     44 H21          0.0980     9.6570     5.5470 ha         1 DD7       0.135500
     45 H22         -0.0440    11.4990     7.1950 ha         1 DD7       0.134000
@<TRIPOS>BOND
     1     1     2 ar  
     2     1    15 ar  
     3     1    25 1   
     4     2    18 ar  
     5     2    26 1   
     6     3    14 1   
     7     3    15 1   
     8     3    27 1   
     9     3    28 1   
    10     4     5 1   
    11     4     9 1   
    12     4    14 1   
    13     4    29 1   
    14     5     6 1   
    15     5    20 1   
    16     5    30 1   
    17     6    19 1   
    18     6    31 1   
    19     6    32 1   
    20     7     8 1   
    21     7    19 1   
    22     7    20 1   
    23     7    33 1   
    24     8     9 1   
    25     8    21 1   
    26     8    34 1   
    27     9    13 1   
    28     9    35 1   
    29    10    11 ar  
    30    10    21 1   
    31    10    22 ar  
    32    11    12 ar  
    33    11    36 1   
    34    12    24 ar  
    35    12    37 1   
    36    13    38 1   
    37    14    39 1   
    38    15    16 ar  
    39    16    17 ar  
    40    16    40 1   
    41    17    18 ar  
    42    17    41 1   
    43    18    42 1   
    44    22    23 ar  
    45    22    43 1   
    46    23    24 ar  
    47    23    44 1   
    48    24    45 1   
@<TRIPOS>SUBSTRUCTURE
     1 DD7         1 TEMP              0 ****  ****    0 ROOT
