@<TRIPOS>MOLECULE
DD7
   45    48     1     0     0
SMALL
No Charge or Current Charge


@<TRIPOS>ATOM
      1 C4          -5.0330    -0.7840     7.0220 ca         1 DD7      -0.101000
      2 C5          -5.9850    -1.8140     7.1300 ca         1 DD7      -0.113500
      3 C6          -4.3320     1.5390     6.2620 c3         1 DD7       0.228100
      4 C7          -3.3020     3.4540     7.5900 c6         1 DD7       0.177500
      5 C8          -3.2840     4.0170     9.0510 c5         1 DD7       0.118300
      6 C9          -1.8960     4.6210     9.4560 c5         1 DD7       0.130600
      7 C10         -3.2900     6.2330     8.5650 c5         1 DD7       0.381300
      8 C11         -2.9750     5.9790     7.0470 c6         1 DD7      -0.020700
      9 C12         -3.5690     4.6230     6.5640 c6         1 DD7       0.156300
     10 C13         -2.7880     8.8270     6.7290 ca         1 DD7      -0.119000
     11 C14         -3.5280    10.0210     6.7990 ca         1 DD7      -0.068000
     12 C15         -2.9660    11.1690     7.3860 ca         1 DD7      -0.118500
     13 O2          -3.0530     4.3060     5.2570 oh         1 DD7      -0.660000
     14 N           -4.3100     2.3530     7.4930 n7         1 DD7      -0.894400
     15 C3          -5.3650     0.4270     6.3820 ca         1 DD7      -0.089300
     16 C2          -6.6610     0.5980     5.8550 ca         1 DD7      -0.101000
     17 C1          -7.6120    -0.4320     5.9630 ca         1 DD7      -0.113500
     18 C           -7.2750    -1.6380     6.6010 ca         1 DD7      -0.111000
     19 O           -2.0970     6.0540     9.3520 os         1 DD7      -0.469000
     20 O1          -4.1280     5.1930     9.1050 os         1 DD7      -0.441000
     21 S           -3.5440     7.3880     5.9750 ss         1 DD7      -0.222000
     22 C18         -1.4730     8.7920     7.2360 ca         1 DD7      -0.068000
     23 C17         -0.9130     9.9410     7.8230 ca         1 DD7      -0.118500
     24 C16         -1.6600    11.1290     7.9000 ca         1 DD7      -0.085000
     25 H1          -4.0370    -0.9250     7.4360 ha         1 DD7       0.116500
     26 H2          -5.7230    -2.7460     7.6250 ha         1 DD7       0.110500
     27 H3          -3.3440     1.0930     6.0770 h1         1 DD7       0.046700
     28 H4          -4.5790     2.1570     5.3880 h1         1 DD7       0.046700
     29 H5          -2.3080     3.0280     7.3820 h1         1 DD7       0.078700
     30 H6          -3.6260     3.2550     9.7640 h1         1 DD7       0.109700
     31 H7          -1.6200     4.3690    10.4890 h1         1 DD7       0.061700
     32 H8          -1.0830     4.3070     8.7880 h1         1 DD7       0.061700
     33 H9          -3.7270     7.2260     8.7390 h2         1 DD7       0.113700
     34 H10         -1.8850     5.9230     6.9310 h1         1 DD7       0.100700
     35 H11         -4.6600     4.7600     6.5030 h1         1 DD7       0.050700
     36 H12         -4.5400    10.0580     6.4030 ha         1 DD7       0.124000
     37 H13         -3.5450    12.0890     7.4410 ha         1 DD7       0.117500
     38 H14         -3.2580     5.0770     4.6830 ho         1 DD7       0.460000
     39 H15         -5.2490     2.7460     7.6290 hn         1 DD7       0.426000
     40 H17         -6.9310     1.5280     5.3600 ha         1 DD7       0.116500
     41 H18         -8.6110    -0.2940     5.5540 ha         1 DD7       0.110500
     42 H19         -8.0110    -2.4340     6.6850 ha         1 DD7       0.111000
     43 H20         -0.8750     7.8870     7.1740 ha         1 DD7       0.124000
     44 H21          0.1010     9.9110     8.2140 ha         1 DD7       0.117500
     45 H22         -1.2250    12.0170     8.3530 ha         1 DD7       0.116000
@<TRIPOS>BOND
     1     1     2 ar  
     2     1    15 ar  
     3     1    25 1   
     4     2    18 ar  
     5     2    26 1   
     6     3    14 1   
     7     3    15 1   
     8     3    27 1   
     9     3    28 1   
    10     4     5 1   
    11     4     9 1   
    12     4    14 1   
    13     4    29 1   
    14     5     6 1   
    15     5    20 1   
    16     5    30 1   
    17     6    19 1   
    18     6    31 1   
    19     6    32 1   
    20     7     8 1   
    21     7    19 1   
    22     7    20 1   
    23     7    33 1   
    24     8     9 1   
    25     8    21 1   
    26     8    34 1   
    27     9    13 1   
    28     9    35 1   
    29    10    11 ar  
    30    10    21 1   
    31    10    22 ar  
    32    11    12 ar  
    33    11    36 1   
    34    12    24 ar  
    35    12    37 1   
    36    13    38 1   
    37    14    39 1   
    38    15    16 ar  
    39    16    17 ar  
    40    16    40 1   
    41    17    18 ar  
    42    17    41 1   
    43    18    42 1   
    44    22    23 ar  
    45    22    43 1   
    46    23    24 ar  
    47    23    44 1   
    48    24    45 1   
@<TRIPOS>SUBSTRUCTURE
     1 DD7         1 TEMP              0 ****  ****    0 ROOT
