@<TRIPOS>MOLECULE
DD8
   47    51     1     0     0
SMALL
No Charge or Current Charge


@<TRIPOS>ATOM
      1 C1           5.0620     1.6710    -0.1520 c3         1 DD8       0.103300
      2 C3           3.3820    -0.2010    -0.4180 c          1 DD8       0.581000
      3 O4           4.1680    -1.0800    -0.7400 o          1 DD8      -0.560000
      4 C7           0.8530    -2.3480    -1.0970 c6         1 DD8      -0.130900
      5 C8           0.1020    -3.6440    -0.7150 c6         1 DD8       0.155600
      6 C10          1.3360    -3.8580     1.3620 c6         1 DD8       0.155600
      7 C11          2.1630    -2.5840     1.0740 c6         1 DD8      -0.130900
      8 C12          1.4630     0.9660     0.2200 ca         1 DD8       0.047600
      9 C13          2.5300     1.8570     0.2040 ca         1 DD8      -0.082400
     10 C14          2.3190     3.2410     0.2600 ca         1 DD8       0.375900
     11 C16          0.0100     2.9130     0.3500 ca         1 DD8       0.265000
     12 C19         -2.3150     1.2810     0.0350 cp         1 DD8      -0.026000
     13 C20         -1.0170     0.7170    -0.0020 ca         1 DD8      -0.087000
     14 C21          0.1450     1.5000     0.1910 ca         1 DD8      -0.052000
     15 C22         -3.5330     0.4280    -0.1550 cp         1 DD8      -0.090000
     16 C24         -5.8080     0.0810    -0.9440 ca         1 DD8      -0.162000
     17 N26         -4.6450    -1.7370     0.1490 nb         1 DD8      -0.664000
     18 C27         -3.5750    -0.9200     0.2940 ca         1 DD8       0.343900
     19 N2           3.6860     1.1460    -0.2170 n          1 DD8      -0.274000
     20 N5           2.0040    -0.3260    -0.1390 n          1 DD8      -0.280000
     21 C6           1.3380    -1.6180     0.1800 c6         1 DD8       0.137700
     22 O9           0.9430    -4.4730     0.1160 os         1 DD8      -0.441000
     23 N15          1.0750     3.7560     0.3950 nb         1 DD8      -0.661000
     24 C17         -1.2800     3.4690     0.3990 ca         1 DD8      -0.076000
     25 C18         -2.4240     2.6710     0.2550 ca         1 DD8      -0.097000
     26 C23         -4.6960     0.9260    -0.7920 ca         1 DD8      -0.062000
     27 C25         -5.7410    -1.2360    -0.4630 ca         1 DD8       0.338900
     28 H1           5.4120     1.6580     0.8880 h1         1 DD8       0.054367
     29 H2           5.7320     1.0550    -0.7660 h1         1 DD8       0.054367
     30 H3           5.0870     2.7010    -0.5290 h1         1 DD8       0.054367
     31 H4           1.7110    -2.5960    -1.7350 hc         1 DD8       0.070950
     32 H5           0.1990    -1.6980    -1.6940 hc         1 DD8       0.070950
     33 H6          -0.8240    -3.4050    -0.1710 h1         1 DD8       0.046700
     34 H7          -0.1690    -4.2040    -1.6220 h1         1 DD8       0.046700
     35 H8           1.9370    -4.5740     1.9410 h1         1 DD8       0.046700
     36 H9           0.4380    -3.6120     1.9480 h1         1 DD8       0.046700
     37 H10          2.4350    -2.0910     2.0170 hc         1 DD8       0.070950
     38 H11          3.0970    -2.8870     0.5870 hc         1 DD8       0.070950
     39 H12          3.1430     3.9490     0.1820 h4         1 DD8       0.028100
     40 H13         -0.9430    -0.3390    -0.2110 ha         1 DD8       0.116000
     41 H14         -6.7120     0.4360    -1.4320 ha         1 DD8       0.126000
     42 H15         -2.7170    -1.3600     0.8020 h4         1 DD8       0.018100
     43 H16          0.4610    -1.3840     0.7950 h1         1 DD8       0.052700
     44 H17         -1.3920     4.5420     0.5320 ha         1 DD8       0.134000
     45 H18         -3.4030     3.1420     0.3060 ha         1 DD8       0.121000
     46 H19         -4.7340     1.9430    -1.1740 ha         1 DD8       0.122000
     47 H20         -6.5900    -1.9100    -0.5700 h4         1 DD8       0.021100
@<TRIPOS>BOND
     1     1    19 1   
     2     1    28 1   
     3     1    29 1   
     4     1    30 1   
     5     2     3 2   
     6     2    19 1   
     7     2    20 1   
     8     4     5 1   
     9     4    21 1   
    10     4    31 1   
    11     4    32 1   
    12     5    22 1   
    13     5    33 1   
    14     5    34 1   
    15     6     7 1   
    16     6    22 1   
    17     6    35 1   
    18     6    36 1   
    19     7    21 1   
    20     7    37 1   
    21     7    38 1   
    22     8     9 ar  
    23     8    14 ar  
    24     8    20 1   
    25     9    10 ar  
    26     9    19 1   
    27    10    23 ar  
    28    10    39 1   
    29    11    14 ar  
    30    11    23 ar  
    31    11    24 ar  
    32    12    13 ar  
    33    12    15 1   
    34    12    25 ar  
    35    13    14 ar  
    36    13    40 1   
    37    15    18 ar  
    38    15    26 ar  
    39    16    26 ar  
    40    16    27 ar  
    41    16    41 1   
    42    17    18 ar  
    43    17    27 ar  
    44    18    42 1   
    45    20    21 1   
    46    21    43 1   
    47    24    25 ar  
    48    24    44 1   
    49    25    45 1   
    50    26    46 1   
    51    27    47 1   
@<TRIPOS>SUBSTRUCTURE
     1 DD8         1 TEMP              0 ****  ****    0 ROOT
