@<TRIPOS>MOLECULE
DD8
   47    51     1     0     0
SMALL
abcg2


@<TRIPOS>ATOM
      1 C1           4.9680     1.6680    -0.1300 c3         1 DD8       0.103300
      2 C3           3.3580    -0.2310    -0.1540 c          1 DD8       0.581000
      3 O4           4.1600    -1.1410    -0.2500 o          1 DD8      -0.560000
      4 C7           1.4780    -2.4160    -1.3590 c6         1 DD8      -0.130900
      5 C8           0.7440    -3.7450    -1.2460 c6         1 DD8       0.155600
      6 C10          0.9730    -3.8290     1.0770 c6         1 DD8       0.155600
      7 C11          1.7240    -2.5060     1.1410 c6         1 DD8      -0.130900
      8 C12          1.4180     0.9170     0.0150 ca         1 DD8       0.047600
      9 C13          2.4730     1.8140     0.0090 ca         1 DD8      -0.082400
     10 C14          2.2700     3.1890     0.1140 ca         1 DD8       0.375900
     11 C16          0.0060     2.8520     0.2060 ca         1 DD8       0.265000
     12 C19         -2.3380     1.2890     0.1570 cp         1 DD8      -0.026000
     13 C20         -1.1070     0.6880     0.0620 ca         1 DD8      -0.087000
     14 C21          0.0980     1.4290     0.0970 ca         1 DD8      -0.052000
     15 C22         -3.5700     0.4830     0.1170 cp         1 DD8      -0.090000
     16 C24         -5.8390     0.1180    -0.5640 ca         1 DD8      -0.162000
     17 N26         -4.7200    -1.5310     0.7480 nb         1 DD8      -0.664000
     18 C27         -3.6460    -0.7560     0.7560 ca         1 DD8       0.343900
     19 N2           3.6410     1.1050    -0.1020 n          1 DD8      -0.274000
     20 N5           1.9750    -0.3430    -0.0750 n          1 DD8      -0.280000
     21 C6           1.3150    -1.6460    -0.0520 c6         1 DD8       0.137700
     22 O9           1.1890    -4.5020    -0.1430 os         1 DD8      -0.441000
     23 N15          1.0660     3.6900     0.2170 nb         1 DD8      -0.661000
     24 C17         -1.2740     3.4450     0.3020 ca         1 DD8      -0.076000
     25 C18         -2.4120     2.6960     0.2830 ca         1 DD8      -0.097000
     26 C23         -4.7110     0.9200    -0.5520 ca         1 DD8      -0.062000
     27 C25         -5.7950    -1.1010     0.0960 ca         1 DD8       0.338900
     28 H1           5.2100     2.1390     0.8220 h1         1 DD8       0.054367
     29 H2           5.6840     0.8730    -0.3170 h1         1 DD8       0.054367
     30 H3           5.0530     2.4060    -0.9260 h1         1 DD8       0.054367
     31 H4           2.5330    -2.5930    -1.5690 hc         1 DD8       0.070950
     32 H5           1.0610    -1.8440    -2.1910 hc         1 DD8       0.070950
     33 H6          -0.3400    -3.5640    -1.1730 h1         1 DD8       0.046700
     34 H7           0.9120    -4.3470    -2.1400 h1         1 DD8       0.046700
     35 H8           1.3100    -4.4920     1.8740 h1         1 DD8       0.046700
     36 H9          -0.1030    -3.6550     1.2300 h1         1 DD8       0.046700
     37 H10          1.4760    -1.9980     2.0750 hc         1 DD8       0.070950
     38 H11          2.7980    -2.6940     1.1350 hc         1 DD8       0.070950
     39 H12          3.1070     3.8780     0.1180 h4         1 DD8       0.028100
     40 H13         -1.0810    -0.3790    -0.0820 ha         1 DD8       0.116000
     41 H14         -6.7370     0.4260    -1.0820 ha         1 DD8       0.126000
     42 H15         -2.7960    -1.1240     1.3230 h4         1 DD8       0.018100
     43 H16          0.2550    -1.4430     0.0690 h1         1 DD8       0.052700
     44 H17         -1.3240     4.5220     0.3950 ha         1 DD8       0.134000
     45 H18         -3.3760     3.1800     0.3790 ha         1 DD8       0.121000
     46 H19         -4.7140     1.8690    -1.0730 ha         1 DD8       0.122000
     47 H20         -6.6600    -1.7540     0.1020 h4         1 DD8       0.021100
@<TRIPOS>BOND
     1     1    19 1   
     2     1    28 1   
     3     1    29 1   
     4     1    30 1   
     5     2     3 2   
     6     2    19 1   
     7     2    20 1   
     8     4     5 1   
     9     4    21 1   
    10     4    31 1   
    11     4    32 1   
    12     5    22 1   
    13     5    33 1   
    14     5    34 1   
    15     6     7 1   
    16     6    22 1   
    17     6    35 1   
    18     6    36 1   
    19     7    21 1   
    20     7    37 1   
    21     7    38 1   
    22     8     9 ar  
    23     8    14 ar  
    24     8    20 1   
    25     9    10 ar  
    26     9    19 1   
    27    10    23 ar  
    28    10    39 1   
    29    11    14 ar  
    30    11    23 ar  
    31    11    24 ar  
    32    12    13 ar  
    33    12    15 1   
    34    12    25 ar  
    35    13    14 ar  
    36    13    40 1   
    37    15    18 ar  
    38    15    26 ar  
    39    16    26 ar  
    40    16    27 ar  
    41    16    41 1   
    42    17    18 ar  
    43    17    27 ar  
    44    18    42 1   
    45    20    21 1   
    46    21    43 1   
    47    24    25 ar  
    48    24    44 1   
    49    25    45 1   
    50    26    46 1   
    51    27    47 1   
@<TRIPOS>SUBSTRUCTURE
     1 DD8         1 TEMP              0 ****  ****    0 ROOT
