@<TRIPOS>MOLECULE
DD9
   29    28     1     0     0
SMALL
bcc


@<TRIPOS>ATOM
      1 C1           5.0810     0.3510    -0.0180 c3         1 DD9      -0.088100
      2 C2           3.8190    -0.5000    -0.0060 c3         1 DD9      -0.074900
      3 C3           2.5450     0.3370    -0.0130 c3         1 DD9      -0.075900
      4 C4           1.2710    -0.4990    -0.0030 c3         1 DD9      -0.074400
      5 C5           0.0020     0.3450    -0.0080 c3         1 DD9      -0.074400
      6 C6          -1.2760    -0.4850     0.0000 c3         1 DD9      -0.074400
      7 C7          -2.5420     0.3630    -0.0040 c3         1 DD9      -0.075900
      8 C8          -3.8240    -0.4610     0.0030 c3         1 DD9      -0.074900
      9 C9          -5.0780     0.4040    -0.0080 c3         1 DD9      -0.088100
     10 H1           5.1190     0.9850    -0.9060 hc         1 DD9       0.031367
     11 H1A          5.1220     1.0060     0.8550 hc         1 DD9       0.031367
     12 H1B          5.9830    -0.2620    -0.0120 hc         1 DD9       0.031367
     13 H2           3.8170    -1.1670    -0.8740 hc         1 DD9       0.036700
     14 H2A          3.8210    -1.1500     0.8750 hc         1 DD9       0.036700
     15 H3           2.5480     1.0050     0.8560 hc         1 DD9       0.036700
     16 H3A          2.5460     0.9880    -0.8940 hc         1 DD9       0.036700
     17 H4           1.2670    -1.1660    -0.8720 hc         1 DD9       0.036700
     18 H4A          1.2700    -1.1500     0.8790 hc         1 DD9       0.036700
     19 H5           0.0060     1.0120     0.8620 hc         1 DD9       0.036700
     20 H5A          0.0040     0.9970    -0.8880 hc         1 DD9       0.036700
     21 H6          -1.2820    -1.1510    -0.8700 hc         1 DD9       0.036700
     22 H6A         -1.2800    -1.1380     0.8800 hc         1 DD9       0.036700
     23 H7          -2.5360     1.0300     0.8660 hc         1 DD9       0.036700
     24 H7A         -2.5370     1.0170    -0.8840 hc         1 DD9       0.036700
     25 H8          -3.8300    -1.1290    -0.8640 hc         1 DD9       0.036700
     26 H8A         -3.8320    -1.1090     0.8850 hc         1 DD9       0.036700
     27 H9          -5.1110     1.0590     0.8650 hc         1 DD9       0.031367
     28 H9A         -5.1090     1.0380    -0.8970 hc         1 DD9       0.031367
     29 H9B         -5.9860    -0.2010    -0.0020 hc         1 DD9       0.031367
@<TRIPOS>BOND
     1     1     2 1   
     2     1    10 1   
     3     1    11 1   
     4     1    12 1   
     5     2     3 1   
     6     2    13 1   
     7     2    14 1   
     8     3     4 1   
     9     3    15 1   
    10     3    16 1   
    11     4     5 1   
    12     4    17 1   
    13     4    18 1   
    14     5     6 1   
    15     5    19 1   
    16     5    20 1   
    17     6     7 1   
    18     6    21 1   
    19     6    22 1   
    20     7     8 1   
    21     7    23 1   
    22     7    24 1   
    23     8     9 1   
    24     8    25 1   
    25     8    26 1   
    26     9    27 1   
    27     9    28 1   
    28     9    29 1   
@<TRIPOS>SUBSTRUCTURE
     1 DD9         1 TEMP              0 ****  ****    0 ROOT
