@<TRIPOS>MOLECULE
DD9
   29    28     1     0     0
SMALL
No Charge or Current Charge


@<TRIPOS>ATOM
      1 C1           5.1520     0.3380    -0.0160 c3         1 DD9      -0.088100
      2 C2           3.8620    -0.5050    -0.0060 c3         1 DD9      -0.074900
      3 C3           2.5780     0.3540    -0.0130 c3         1 DD9      -0.075900
      4 C4           1.2860    -0.4910    -0.0030 c3         1 DD9      -0.074400
      5 C5           0.0020     0.3670    -0.0100 c3         1 DD9      -0.074400
      6 C6          -1.2910    -0.4780    -0.0000 c3         1 DD9      -0.074400
      7 C7          -2.5750     0.3800    -0.0070 c3         1 DD9      -0.075900
      8 C8          -3.8670    -0.4650     0.0020 c3         1 DD9      -0.074900
      9 C9          -5.1480     0.3920    -0.0050 c3         1 DD9      -0.088100
     10 H1           5.1960     0.9690    -0.9120 hc         1 DD9       0.031367
     11 H1A          5.1980     0.9870     0.8670 hc         1 DD9       0.031367
     12 H1B          6.0340    -0.3130    -0.0110 hc         1 DD9       0.031367
     13 H2           3.8620    -1.1660    -0.8810 hc         1 DD9       0.036700
     14 H2A          3.8640    -1.1490     0.8820 hc         1 DD9       0.036700
     15 H3           2.5830     1.0150     0.8630 hc         1 DD9       0.036700
     16 H3A          2.5810     0.9980    -0.9010 hc         1 DD9       0.036700
     17 H4           1.2810    -1.1530    -0.8790 hc         1 DD9       0.036700
     18 H4A          1.2830    -1.1360     0.8850 hc         1 DD9       0.036700
     19 H5           0.0060     1.0280     0.8650 hc         1 DD9       0.036700
     20 H5A          0.0040     1.0110    -0.8980 hc         1 DD9       0.036700
     21 H6          -1.2950    -1.1400    -0.8760 hc         1 DD9       0.036700
     22 H6A         -1.2930    -1.1220     0.8880 hc         1 DD9       0.036700
     23 H7          -2.5700     1.0420     0.8680 hc         1 DD9       0.036700
     24 H7A         -2.5720     1.0250    -0.8960 hc         1 DD9       0.036700
     25 H8          -3.8760    -1.1260    -0.8730 hc         1 DD9       0.036700
     26 H8A         -3.8740    -1.1090     0.8900 hc         1 DD9       0.036700
     27 H9          -5.1860     1.0400     0.8790 hc         1 DD9       0.031367
     28 H9A         -5.1880     1.0230    -0.9010 hc         1 DD9       0.031367
     29 H9B         -6.0370    -0.2500     0.0030 hc         1 DD9       0.031367
@<TRIPOS>BOND
     1     1     2 1   
     2     1    10 1   
     3     1    11 1   
     4     1    12 1   
     5     2     3 1   
     6     2    13 1   
     7     2    14 1   
     8     3     4 1   
     9     3    15 1   
    10     3    16 1   
    11     4     5 1   
    12     4    17 1   
    13     4    18 1   
    14     5     6 1   
    15     5    19 1   
    16     5    20 1   
    17     6     7 1   
    18     6    21 1   
    19     6    22 1   
    20     7     8 1   
    21     7    23 1   
    22     7    24 1   
    23     8     9 1   
    24     8    25 1   
    25     8    26 1   
    26     9    27 1   
    27     9    28 1   
    28     9    29 1   
@<TRIPOS>SUBSTRUCTURE
     1 DD9         1 TEMP              0 ****  ****    0 ROOT
