@<TRIPOS>MOLECULE
DDA
   22    22     1     0     0
SMALL
bcc


@<TRIPOS>ATOM
      1 C1          -6.3180    -1.1170     1.3040 c6         1 DDA       0.351900
      2 C2          -7.2410    -1.6280     0.2120 c6         1 DDA      -0.107400
      3 C3          -8.2020    -0.5270    -0.2030 c6         1 DDA       0.156100
      4 C4          -8.9270     0.0140     1.0220 c6         1 DDA       0.071100
      5 C5          -7.9040     0.4500     2.0790 c6         1 DDA       0.135100
      6 C6          -8.5520     0.9310     3.3610 c3         1 DDA      -0.091100
      7 O5          -7.0660    -0.6430     2.4020 os         1 DDA      -0.445600
      8 O1          -5.5160    -2.1540     1.7390 oh         1 DDA      -0.572800
      9 O3          -9.0930    -1.0410    -1.1620 oh         1 DDA      -0.590800
     10 O4          -9.7280     1.0930     0.5940 oh         1 DDA      -0.603800
     11 H1          -5.7140    -0.2820     0.9050 h2         1 DDA       0.013700
     12 H21         -6.6500    -1.9540    -0.6470 hc         1 DDA       0.077700
     13 H22         -7.8000    -2.4920     0.5850 hc         1 DDA       0.077700
     14 H3          -7.6130     0.3030    -0.6290 h1         1 DDA       0.036700
     15 H4          -9.5400    -0.7930     1.4500 h1         1 DDA       0.058700
     16 H5          -7.3020     1.2700     1.6520 h1         1 DDA       0.041700
     17 H61         -7.7980     1.2280     4.0900 hc         1 DDA       0.046700
     18 H62         -9.1820     1.8000     3.1740 hc         1 DDA       0.046700
     19 H63         -9.1720     0.1500     3.8050 hc         1 DDA       0.046700
     20 HO1         -4.7910    -1.7960     2.2630 ho         1 DDA       0.419000
     21 HO3         -9.7200    -0.3440    -1.3820 ho         1 DDA       0.420000
     22 HO4        -10.4470     1.2190     1.2200 ho         1 DDA       0.412000
@<TRIPOS>BOND
     1     1     2 1   
     2     1     7 1   
     3     1     8 1   
     4     1    11 1   
     5     2     3 1   
     6     2    12 1   
     7     2    13 1   
     8     3     4 1   
     9     3     9 1   
    10     3    14 1   
    11     4     5 1   
    12     4    10 1   
    13     4    15 1   
    14     5     6 1   
    15     5     7 1   
    16     5    16 1   
    17     6    17 1   
    18     6    18 1   
    19     6    19 1   
    20     8    20 1   
    21     9    21 1   
    22    10    22 1   
@<TRIPOS>SUBSTRUCTURE
     1 DDA         1 TEMP              0 ****  ****    0 ROOT
