@<TRIPOS>MOLECULE
DDA
   22    22     1     0     0
SMALL
No Charge or Current Charge


@<TRIPOS>ATOM
      1 C1          -6.2160    -1.0550     1.2120 c6         1 DDA       0.398300
      2 C2          -7.1670    -1.6290     0.1420 c6         1 DDA      -0.107400
      3 C3          -8.1880    -0.5470    -0.2710 c6         1 DDA       0.179300
      4 C4          -8.9340     0.0070     0.9800 c6         1 DDA       0.094300
      5 C5          -7.8750     0.4940     2.0230 c6         1 DDA       0.158300
      6 C6          -8.5000     0.9420     3.3680 c3         1 DDA      -0.091100
      7 O5          -6.9660    -0.5860     2.3340 os         1 DDA      -0.492000
      8 O1          -5.3870    -2.0640     1.7340 oh         1 DDA      -0.635000
      9 O3          -9.1330    -1.0740    -1.2070 oh         1 DDA      -0.653000
     10 O4          -9.8470     1.0570     0.5870 oh         1 DDA      -0.726000
     11 H1          -5.6080    -0.2380     0.7970 h2         1 DDA       0.013700
     12 H21         -6.5890    -1.9580    -0.7320 hc         1 DDA       0.077700
     13 H22         -7.6870    -2.5120     0.5370 hc         1 DDA       0.077700
     14 H3          -7.6360     0.2840    -0.7360 h1         1 DDA       0.036700
     15 H4          -9.4950    -0.8230     1.4350 h1         1 DDA       0.058700
     16 H5          -7.2970     1.3330     1.6060 h1         1 DDA       0.041700
     17 H61         -7.7200     1.2080     4.0910 hc         1 DDA       0.046700
     18 H62         -9.1370     1.8240     3.2370 hc         1 DDA       0.046700
     19 H63         -9.1100     0.1450     3.8090 hc         1 DDA       0.046700
     20 HO1         -5.4990    -1.9550     2.7010 ho         1 DDA       0.458000
     21 HO3         -9.8810    -0.4330    -1.1840 ho         1 DDA       0.459000
     22 HO4        -10.4060     1.2710     1.3720 ho         1 DDA       0.511000
@<TRIPOS>BOND
     1     1     2 1   
     2     1     7 1   
     3     1     8 1   
     4     1    11 1   
     5     2     3 1   
     6     2    12 1   
     7     2    13 1   
     8     3     4 1   
     9     3     9 1   
    10     3    14 1   
    11     4     5 1   
    12     4    10 1   
    13     4    15 1   
    14     5     6 1   
    15     5     7 1   
    16     5    16 1   
    17     6    17 1   
    18     6    18 1   
    19     6    19 1   
    20     8    20 1   
    21     9    21 1   
    22    10    22 1   
@<TRIPOS>SUBSTRUCTURE
     1 DDA         1 TEMP              0 ****  ****    0 ROOT
