@<TRIPOS>MOLECULE
DDC
   30    32     1     0     0
SMALL
abcg2


@<TRIPOS>ATOM
      1 C1           1.2330    -0.3010     3.5500 ca         1 DDC       0.205100
      2 C2          -0.0590    -0.0960     4.0580 ca         1 DDC      -0.197000
      3 C3          -1.0970     0.1040     3.1820 ca         1 DDC       0.018000
      4 C4          -0.9010     0.1040     1.7940 ca         1 DDC      -0.307600
      5 C5           0.3930    -0.1250     1.3070 ca         1 DDC       0.227100
      6 C6           1.4570    -0.3220     2.1800 ca         1 DDC      -0.269000
      7 C7          -1.9940     0.4170     0.8740 c          1 DDC       0.599700
      8 C8          -1.5840     0.5250    -0.5730 c6         1 DDC      -0.215400
      9 C9          -0.4240    -0.4070    -0.8860 c6         1 DDC       0.230600
     10 O1           0.6730    -0.1600    -0.0050 os         1 DDC      -0.338100
     11 O2           2.2160    -0.4850     4.4370 oh         1 DDC      -0.524100
     12 C10          0.0700    -0.2450    -2.2950 ca         1 DDC      -0.095300
     13 C11          0.7490     0.9090    -2.6820 ca         1 DDC      -0.086500
     14 C12          1.1610     1.0690    -3.9960 ca         1 DDC      -0.113000
     15 C13          0.8940     0.0820    -4.9380 ca         1 DDC      -0.098000
     16 C14          0.2160    -1.0670    -4.5580 ca         1 DDC      -0.113000
     17 C15         -0.1900    -1.2300    -3.2390 ca         1 DDC      -0.086500
     18 O3          -3.1340     0.6260     1.2420 o          1 DDC      -0.526100
     19 H2          -0.2220    -0.0870     5.1280 ha         1 DDC       0.136000
     20 H3          -2.0920     0.2810     3.5680 ha         1 DDC       0.135000
     21 H6           2.4490    -0.5020     1.7810 ha         1 DDC       0.132000
     22 H81         -2.4300     0.2990    -1.2240 hc         1 DDC       0.085700
     23 H82         -1.2960     1.5650    -0.7650 hc         1 DDC       0.085700
     24 H9          -0.7540    -1.4430    -0.7350 h1         1 DDC       0.058700
     25 HO2          3.0640    -0.6030     3.9940 ho         1 DDC       0.472000
     26 H11          0.9560     1.6870    -1.9580 ha         1 DDC       0.117500
     27 H12          1.6900     1.9670    -4.2880 ha         1 DDC       0.116000
     28 H13          1.2150     0.2100    -5.9640 ha         1 DDC       0.115000
     29 H14          0.0050    -1.8400    -5.2860 ha         1 DDC       0.116000
     30 H15         -0.7140    -2.1320    -2.9440 ha         1 DDC       0.117500
@<TRIPOS>BOND
     1     1     2 ar  
     2     1     6 ar  
     3     1    11 1   
     4     2     3 ar  
     5     2    19 1   
     6     3     4 ar  
     7     3    20 1   
     8     4     5 ar  
     9     4     7 1   
    10     5     6 ar  
    11     5    10 1   
    12     6    21 1   
    13     7     8 1   
    14     7    18 2   
    15     8     9 1   
    16     8    22 1   
    17     8    23 1   
    18     9    10 1   
    19     9    12 1   
    20     9    24 1   
    21    11    25 1   
    22    12    13 ar  
    23    12    17 ar  
    24    13    14 ar  
    25    13    26 1   
    26    14    15 ar  
    27    14    27 1   
    28    15    16 ar  
    29    15    28 1   
    30    16    17 ar  
    31    16    29 1   
    32    17    30 1   
@<TRIPOS>SUBSTRUCTURE
     1 DDC         1 TEMP              0 ****  ****    0 ROOT
