@<TRIPOS>MOLECULE
DDC
   30    32     1     0     0
SMALL
No Charge or Current Charge


@<TRIPOS>ATOM
      1 C1           1.2460    -0.2920     3.6160 ca         1 DDC       0.205100
      2 C2          -0.0390    -0.0540     4.1200 ca         1 DDC      -0.197000
      3 C3          -1.1170     0.1510     3.2420 ca         1 DDC       0.018000
      4 C4          -0.9010     0.1130     1.8500 ca         1 DDC      -0.307600
      5 C5           0.3890    -0.1480     1.3520 ca         1 DDC       0.227100
      6 C6           1.4620    -0.3380     2.2330 ca         1 DDC      -0.269000
      7 C7          -2.0180     0.3590     0.8880 c          1 DDC       0.599700
      8 C8          -1.6100     0.5710    -0.5590 c6         1 DDC      -0.215400
      9 C9          -0.4760    -0.4010    -0.9060 c6         1 DDC       0.230600
     10 O1           0.6300    -0.2130    -0.0010 os         1 DDC      -0.338100
     11 O2           2.2820    -0.4830     4.4750 oh         1 DDC      -0.524100
     12 C10          0.0280    -0.2320    -2.3430 ca         1 DDC      -0.095300
     13 C11          0.7210     0.9350    -2.7310 ca         1 DDC      -0.086500
     14 C12          1.1750     1.0840    -4.0530 ca         1 DDC      -0.113000
     15 C13          0.9420     0.0700    -4.9970 ca         1 DDC      -0.098000
     16 C14          0.2540    -1.0940    -4.6180 ca         1 DDC      -0.113000
     17 C15         -0.2010    -1.2460    -3.2960 ca         1 DDC      -0.086500
     18 O3          -3.1940     0.3460     1.2290 o          1 DDC      -0.526100
     19 H2          -0.2020    -0.0210     5.1940 ha         1 DDC       0.136000
     20 H3          -2.1090     0.3470     3.6460 ha         1 DDC       0.135000
     21 H6           2.4530    -0.5280     1.8310 ha         1 DDC       0.132000
     22 H81         -2.4770     0.4910    -1.2260 hc         1 DDC       0.085700
     23 H82         -1.1910     1.5820    -0.6240 hc         1 DDC       0.085700
     24 H9          -0.8440    -1.4300    -0.7750 h1         1 DDC       0.058700
     25 HO2          3.0930    -0.6340     3.9450 ho         1 DDC       0.472000
     26 H11          0.9090     1.7250    -2.0070 ha         1 DDC       0.117500
     27 H12          1.7090     1.9860    -4.3450 ha         1 DDC       0.116000
     28 H13          1.2950     0.1870    -6.0200 ha         1 DDC       0.115000
     29 H14          0.0740    -1.8800    -5.3480 ha         1 DDC       0.116000
     30 H15         -0.7340    -2.1520    -3.0150 ha         1 DDC       0.117500
@<TRIPOS>BOND
     1     1     2 ar  
     2     1     6 ar  
     3     1    11 1   
     4     2     3 ar  
     5     2    19 1   
     6     3     4 ar  
     7     3    20 1   
     8     4     5 ar  
     9     4     7 1   
    10     5     6 ar  
    11     5    10 1   
    12     6    21 1   
    13     7     8 1   
    14     7    18 2   
    15     8     9 1   
    16     8    22 1   
    17     8    23 1   
    18     9    10 1   
    19     9    12 1   
    20     9    24 1   
    21    11    25 1   
    22    12    13 ar  
    23    12    17 ar  
    24    13    14 ar  
    25    13    26 1   
    26    14    15 ar  
    27    14    27 1   
    28    15    16 ar  
    29    15    28 1   
    30    16    17 ar  
    31    16    29 1   
    32    17    30 1   
@<TRIPOS>SUBSTRUCTURE
     1 DDC         1 TEMP              0 ****  ****    0 ROOT
