@<TRIPOS>MOLECULE
DDD
   37    38     1     0     0
SMALL
No Charge or Current Charge


@<TRIPOS>ATOM
      1 O31          4.3740     0.9240     2.0790 o          1 DDD      -0.726000
      2 C3           4.3260     0.7680     0.8650 c          1 DDD       0.717000
      3 O32          5.1470     1.2650     0.1020 o          1 DDD      -0.726000
      4 CA4          3.1190    -0.0610     0.2630 c3         1 DDD       0.049500
      5 CB2          3.6960    -1.2890    -0.5150 c3         1 DDD      -0.059400
      6 CG2          2.6770    -2.3790    -0.9620 c3         1 DDD      -0.159400
      7 CD1          1.3290    -2.2580    -0.2270 c          1 DDD       0.569000
      8 OE1          1.0170    -3.0710     0.6350 o          1 DDD      -0.612000
      9 N2           0.5150    -1.1450    -0.5230 n          1 DDD      -0.400800
     10 CA3          1.0850    -0.0230    -1.2920 c3         1 DDD       0.345200
     11 N3           2.0740     0.7400    -0.4930 n3         1 DDD      -0.737600
     12 CD2          1.5760     1.9330     0.2560 c3         1 DDD       0.372800
     13 SD          -0.2710     1.8960     0.5090 ss         1 DDD      -0.518000
     14 CB1         -0.5210     0.2370     1.3030 c3         1 DDD       0.057600
     15 CA2         -0.7420    -0.8780     0.2450 c3         1 DDD       0.020700
     16 C2          -1.9980    -0.6200    -0.6410 c          1 DDD       0.594100
     17 O2          -1.9740    -0.6340    -1.8680 o          1 DDD      -0.651100
     18 N1          -3.1760    -0.4000     0.0460 ns         1 DDD      -0.467900
     19 CA1         -4.4930    -0.1490    -0.5850 c3         1 DDD      -0.051000
     20 C1          -5.5940     0.2000     0.4580 c          1 DDD       0.713000
     21 O11         -6.5470     0.8690     0.0850 o          1 DDD      -0.737500
     22 O12         -5.4470    -0.1750     1.6150 o          1 DDD      -0.737500
     23 HA4          2.6180    -0.4790     1.1470 h1         1 DDD       0.018700
     24 HB21         4.2540    -0.9370    -1.3920 hc         1 DDD       0.052200
     25 HB22         4.4350    -1.7730     0.1360 hc         1 DDD       0.052200
     26 HG21         2.5120    -2.2260    -2.0340 hc         1 DDD       0.045700
     27 HG22         3.1070    -3.3760    -0.8060 hc         1 DDD       0.045700
     28 HA31         1.5650    -0.4270    -2.1890 h2         1 DDD       0.074200
     29 HA32         0.2770     0.6230    -1.6540 h2         1 DDD       0.074200
     30 HD21         2.0540     2.0040     1.2400 h2         1 DDD       0.071200
     31 HD22         1.8200     2.8440    -0.3060 h2         1 DDD       0.071200
     32 HB11         0.3510    -0.0070     1.9230 h1         1 DDD       0.073200
     33 HB12        -1.3920     0.2940     1.9680 h1         1 DDD       0.073200
     34 HA2         -1.0030    -1.7820     0.8070 h1         1 DDD       0.091700
     35 HN1         -3.1370    -0.4220     1.0590 hn         1 DDD       0.339500
     36 HA11        -4.3980     0.6860    -1.2910 h1         1 DDD       0.032200
     37 HA12        -4.8060    -1.0460    -1.1330 h1         1 DDD       0.032200
@<TRIPOS>BOND
     1     1     2 1   
     2     2     3 1   
     3     2     4 1   
     4     4     5 1   
     5     4    11 1   
     6     4    23 1   
     7     5     6 1   
     8     5    24 1   
     9     5    25 1   
    10     6     7 1   
    11     6    26 1   
    12     6    27 1   
    13     7     8 2   
    14     7     9 1   
    15     9    10 1   
    16     9    15 1   
    17    10    11 1   
    18    10    28 1   
    19    10    29 1   
    20    11    12 1   
    21    12    13 1   
    22    12    30 1   
    23    12    31 1   
    24    13    14 1   
    25    14    15 1   
    26    14    32 1   
    27    14    33 1   
    28    15    16 1   
    29    15    34 1   
    30    16    17 2   
    31    16    18 1   
    32    18    19 1   
    33    18    35 1   
    34    19    20 1   
    35    19    36 1   
    36    19    37 1   
    37    20    21 1   
    38    20    22 1   
@<TRIPOS>SUBSTRUCTURE
     1 DDD         1 TEMP              0 ****  ****    0 ROOT
