@<TRIPOS>MOLECULE
DDD
   37    38     1     0     0
SMALL
bcc


@<TRIPOS>ATOM
      1 O31          5.1710     0.3420     1.3000 o          1 DDD      -0.831300
      2 C3           4.3370     0.8640     0.5330 c          1 DDD       0.927600
      3 O32          4.4170     1.9770    -0.0130 o          1 DDD      -0.831300
      4 CA4          3.0910    -0.0130     0.2310 c3         1 DDD       0.049500
      5 CB2          3.5380    -1.1850    -0.6510 c3         1 DDD      -0.059400
      6 CG2          2.5510    -2.3680    -0.8110 c3         1 DDD      -0.159400
      7 CD1          1.2150    -2.2610    -0.1030 c          1 DDD       0.711500
      8 OE1          0.8150    -3.1630     0.6230 o          1 DDD      -0.687500
      9 N2           0.4890    -1.1430    -0.3460 n          1 DDD      -0.467800
     10 CA3          1.0780    -0.0480    -1.1200 c3         1 DDD       0.345200
     11 N3           2.0200     0.7460    -0.3950 n3         1 DDD      -0.737600
     12 CD2          1.5020     1.8060     0.4500 c3         1 DDD       0.324900
     13 SD          -0.2970     1.8400     0.7410 ss         1 DDD      -0.422200
     14 CB1         -0.5720     0.1900     1.4360 c3         1 DDD       0.009700
     15 CA2         -0.7330    -0.9110     0.3860 c3         1 DDD       0.020700
     16 C2          -1.9020    -0.6840    -0.5810 c          1 DDD       0.661100
     17 O2          -1.7900    -0.8870    -1.7830 o          1 DDD      -0.651100
     18 N1          -3.0460    -0.3040    -0.0120 ns         1 DDD      -0.534900
     19 CA1         -4.2750    -0.1040    -0.7370 c3         1 DDD      -0.051000
     20 C1          -5.4140     0.2910     0.2260 c          1 DDD       0.923600
     21 O11         -6.5100     0.5150    -0.3140 o          1 DDD      -0.842800
     22 O12         -5.1360     0.3430     1.4400 o          1 DDD      -0.842800
     23 HA4          2.7610    -0.4280     1.2010 h1         1 DDD       0.018700
     24 HB21         3.8080    -0.7940    -1.6350 hc         1 DDD       0.052200
     25 HB22         4.4540    -1.5740    -0.2110 hc         1 DDD       0.052200
     26 HG21         2.3490    -2.5430    -1.8720 hc         1 DDD       0.045700
     27 HG22         3.0120    -3.2810    -0.4400 hc         1 DDD       0.045700
     28 HA31         1.5510    -0.4710    -2.0050 h2         1 DDD       0.074200
     29 HA32         0.2760     0.5810    -1.4930 h2         1 DDD       0.074200
     30 HD21         1.9850     1.7680     1.4280 h2         1 DDD       0.071200
     31 HD22         1.7070     2.7950     0.0330 h2         1 DDD       0.071200
     32 HB11         0.2550    -0.0580     2.1050 h1         1 DDD       0.073200
     33 HB12        -1.4560     0.2560     2.0700 h1         1 DDD       0.073200
     34 HA2         -0.9590    -1.8330     0.9280 h1         1 DDD       0.091700
     35 HN1         -3.1400    -0.1940     0.9880 hn         1 DDD       0.339500
     36 HA11        -4.1570     0.6770    -1.4930 h1         1 DDD       0.032200
     37 HA12        -4.5640    -1.0140    -1.2710 h1         1 DDD       0.032200
@<TRIPOS>BOND
     1     1     2 1   
     2     2     3 1   
     3     2     4 1   
     4     4     5 1   
     5     4    11 1   
     6     4    23 1   
     7     5     6 1   
     8     5    24 1   
     9     5    25 1   
    10     6     7 1   
    11     6    26 1   
    12     6    27 1   
    13     7     8 2   
    14     7     9 1   
    15     9    10 1   
    16     9    15 1   
    17    10    11 1   
    18    10    28 1   
    19    10    29 1   
    20    11    12 1   
    21    12    13 1   
    22    12    30 1   
    23    12    31 1   
    24    13    14 1   
    25    14    15 1   
    26    14    32 1   
    27    14    33 1   
    28    15    16 1   
    29    15    34 1   
    30    16    17 2   
    31    16    18 1   
    32    18    19 1   
    33    18    35 1   
    34    19    20 1   
    35    19    36 1   
    36    19    37 1   
    37    20    21 1   
    38    20    22 1   
@<TRIPOS>SUBSTRUCTURE
     1 DDD         1 TEMP              0 ****  ****    0 ROOT
