@<TRIPOS>MOLECULE
DDF
   55    57     1     0     0
SMALL
bcc


@<TRIPOS>ATOM
      1 N1          23.0390    56.9180    22.8710 na         1 DDF      -0.755000
      2 C2          23.5170    56.3410    24.0070 cc         1 DDF       0.874100
      3 NA2         24.8580    56.2300    24.1030 nv         1 DDF      -0.942800
      4 N3          22.7510    55.8760    24.9440 nd         1 DDF      -0.767100
      5 C4          21.3790    55.9510    24.8100 c          1 DDF       0.738700
      6 O4          20.6600    55.4940    25.7030 o          1 DDF      -0.583100
      7 C4A         20.8290    56.5640    23.6270 cc         1 DDF      -0.354400
      8 C5          19.3460    56.7010    23.4380 c6         1 DDF       0.007800
      9 C6          19.0160    57.7920    22.4140 c6         1 DDF      -0.075700
     10 C7          19.8820    57.5810    21.1770 c6         1 DDF       0.229800
     11 N8          21.2840    57.6400    21.5370 nu         1 DDF      -0.776000
     12 C8A         21.6880    57.0310    22.6710 cd         1 DDF       0.385000
     13 C9          19.1830    59.2040    22.9800 c3         1 DDF      -0.067400
     14 C10         18.0900    59.5770    23.9850 c3         1 DDF      -0.023100
     15 C11         18.4870    63.6620    25.3190 ca         1 DDF      -0.112600
     16 C12         19.0600    62.6200    26.0440 ca         1 DDF      -0.097000
     17 C13         18.9380    61.3090    25.6120 ca         1 DDF      -0.146500
     18 C14         18.2210    60.9960    24.4590 ca         1 DDF      -0.101300
     19 C15         17.6440    62.0410    23.7410 ca         1 DDF      -0.146500
     20 C16         17.7750    63.3560    24.1600 ca         1 DDF      -0.097000
     21 O           18.7340    65.2650    27.0510 o          1 DDF      -0.646100
     22 N           18.5410    66.0280    24.9320 ns         1 DDF      -0.513900
     23 CA          18.4780    67.4490    25.2110 c3         1 DDF      -0.044300
     24 CB          19.8800    68.0240    25.4650 c3         1 DDF      -0.047400
     25 CG          19.8910    69.4790    25.9080 c3         1 DDF      -0.193400
     26 CD          21.2620    70.0230    26.3590 c          1 DDF       0.923600
     27 OE1         21.3920    71.2650    26.3290 o          1 DDF      -0.872300
     28 OE2         22.1170    69.1990    26.7440 o          1 DDF      -0.872300
     29 CT          17.7900    68.1300    24.0020 c          1 DDF       0.929600
     30 O1          17.9600    67.5740    22.8960 o          1 DDF      -0.846300
     31 O2          17.1550    69.1730    24.2300 o          1 DDF      -0.846300
     32 HN1         23.6800    57.2520    22.1650 hn         1 DDF       0.437800
     33 HN21        25.2220    55.9740    25.0050 hn         1 DDF       0.434300
     34 HN22        25.4610    56.8070    23.5390 hn         1 DDF       0.434300
     35 H51         18.9050    55.7530    23.1130 hc         1 DDF       0.055700
     36 H52         18.8720    56.9250    24.3960 hc         1 DDF       0.055700
     37 H6          17.9760    57.6720    22.0970 hc         1 DDF       0.052700
     38 H71         19.6360    56.6170    20.7170 h1         1 DDF       0.038700
     39 H72         19.6910    58.3560    20.4350 h1         1 DDF       0.038700
     40 HN8         21.9490    57.7650    20.7910 hn         1 DDF       0.419800
     41 H91         20.1620    59.3140    23.4560 hc         1 DDF       0.050700
     42 H92         19.1600    59.9230    22.1560 hc         1 DDF       0.050700
     43 H101        17.1120    59.4380    23.5170 hc         1 DDF       0.037700
     44 H102        18.1250    58.9040    24.8460 hc         1 DDF       0.037700
     45 H12         19.6050    62.8360    26.9530 ha         1 DDF       0.153500
     46 H13         19.3940    60.5130    26.1880 ha         1 DDF       0.115000
     47 H15         17.0700    61.8220    22.8490 ha         1 DDF       0.115000
     48 H16         17.2830    64.1330    23.5870 ha         1 DDF       0.153500
     49 HN          18.5050    65.8100    23.9460 hn         1 DDF       0.330500
     50 HA          17.8690    67.6050    26.1060 h1         1 DDF       0.051700
     51 HB1         20.3590    67.4160    26.2330 hc         1 DDF       0.031200
     52 HB2         20.4790    67.9000    24.5570 hc         1 DDF       0.031200
     53 HG1         19.4980    70.1260    25.1220 hc         1 DDF       0.030200
     54 HG2         19.1970    69.6000    26.7500 hc         1 DDF       0.030200
     55 C           18.6030    65.0590    25.8470 c          1 DDF       0.651700
@<TRIPOS>BOND
     1     1     2 1   
     2     1    12 1   
     3     1    32 1   
     4     2     3 1   
     5     2     4 2   
     6     3    33 1   
     7     3    34 1   
     8     4     5 1   
     9     5     6 2   
    10     5     7 1   
    11     7     8 1   
    12     7    12 2   
    13     8     9 1   
    14     8    35 1   
    15     8    36 1   
    16     9    10 1   
    17     9    13 1   
    18     9    37 1   
    19    10    11 1   
    20    10    38 1   
    21    10    39 1   
    22    11    12 1   
    23    11    40 1   
    24    13    14 1   
    25    13    41 1   
    26    13    42 1   
    27    14    18 1   
    28    14    43 1   
    29    14    44 1   
    30    15    16 ar  
    31    15    20 ar  
    32    15    55 1   
    33    16    17 ar  
    34    16    45 1   
    35    17    18 ar  
    36    17    46 1   
    37    18    19 ar  
    38    19    20 ar  
    39    19    47 1   
    40    20    48 1   
    41    21    55 2   
    42    22    23 1   
    43    22    49 1   
    44    22    55 1   
    45    23    24 1   
    46    23    29 1   
    47    23    50 1   
    48    24    25 1   
    49    24    51 1   
    50    24    52 1   
    51    25    26 1   
    52    25    53 1   
    53    25    54 1   
    54    26    27 1   
    55    26    28 1   
    56    29    30 1   
    57    29    31 1   
@<TRIPOS>SUBSTRUCTURE
     1 DDF         1 TEMP              0 ****  ****    0 ROOT
