@<TRIPOS>MOLECULE
DDF
   55    57     1     0     0
SMALL
No Charge or Current Charge


@<TRIPOS>ATOM
      1 N1          23.0050    56.5030    23.2410 na         1 DDF      -0.810200
      2 C2          23.1800    55.8610    24.4010 cc         1 DDF       0.874100
      3 NA2         24.4050    55.6420    24.7870 nv         1 DDF      -1.053200
      4 N3          22.1920    55.4560    25.1110 nd         1 DDF      -0.767100
      5 C4          20.8900    55.6870    24.7200 c          1 DDF       0.738700
      6 O4          19.9800    55.2800    25.4240 o          1 DDF      -0.583100
      7 C4A         20.7020    56.4130    23.4720 cc         1 DDF      -0.354400
      8 C5          19.2900    56.6990    22.9910 c6         1 DDF       0.007800
      9 C6          19.2890    57.9370    22.0420 c6         1 DDF      -0.075700
     10 C7          20.3890    57.7650    20.9520 c6         1 DDF       0.229800
     11 N8          21.6950    57.4690    21.5730 nu         1 DDF      -0.831200
     12 C8A         21.7800    56.8050    22.7430 cd         1 DDF       0.385000
     13 C9          19.4440    59.3020    22.7940 c3         1 DDF      -0.067400
     14 C10         18.2980    59.6700    23.7650 c3         1 DDF      -0.023100
     15 C11         18.7750    63.6980    25.3830 ca         1 DDF      -0.112600
     16 C12         19.4540    62.5980    25.9560 ca         1 DDF      -0.079000
     17 C13         19.2980    61.3020    25.4350 ca         1 DDF      -0.128500
     18 C14         18.4600    61.0750    24.3300 ca         1 DDF      -0.101300
     19 C15         17.7810    62.1600    23.7500 ca         1 DDF      -0.128500
     20 C16         17.9330    63.4590    24.2680 ca         1 DDF      -0.079000
     21 O           19.7000    65.2840    26.9350 o          1 DDF      -0.646100
     22 N           18.2710    66.1140    25.3750 ns         1 DDF      -0.446900
     23 CA          18.3360    67.5440    25.7650 c3         1 DDF      -0.044300
     24 CB          19.6190    68.2200    25.2130 c3         1 DDF      -0.047400
     25 CG          19.8230    69.6790    25.6940 c3         1 DDF      -0.193400
     26 CD          21.1530    70.2370    25.1580 c          1 DDF       0.713000
     27 OE1         21.1510    70.7880    24.0680 o          1 DDF      -0.767000
     28 OE2         22.1630    70.0690    25.8240 o          1 DDF      -0.767000
     29 CT          17.0320    68.2760    25.3170 c          1 DDF       0.719000
     30 O1          16.6330    68.1020    24.1720 o          1 DDF      -0.741000
     31 O2          16.3820    68.8730    26.1640 o          1 DDF      -0.741000
     32 HN1         23.8290    56.7450    22.7220 hn         1 DDF       0.493000
     33 HN21        24.4420    55.2950    25.7350 hn         1 DDF       0.489500
     34 HN22        25.0590    56.3850    24.5880 hn         1 DDF       0.489500
     35 H51         18.9100    55.8280    22.4390 hc         1 DDF       0.055700
     36 H52         18.5900    56.8470    23.8230 hc         1 DDF       0.055700
     37 H6          18.3160    57.9830    21.5340 hc         1 DDF       0.052700
     38 H71         20.1040    56.9380    20.2850 h1         1 DDF       0.038700
     39 H72         20.4500    58.6730    20.3340 h1         1 DDF       0.038700
     40 HN8         22.5570    57.6430    21.0590 hn         1 DDF       0.475000
     41 H91         20.3880    59.3210    23.3510 hc         1 DDF       0.050700
     42 H92         19.5190    60.1080    22.0520 hc         1 DDF       0.050700
     43 H101        17.3390    59.5820    23.2410 hc         1 DDF       0.037700
     44 H102        18.2660    58.9490    24.5900 hc         1 DDF       0.037700
     45 H12         20.1090    62.7450    26.8120 ha         1 DDF       0.135500
     46 H13         19.8330    60.4730    25.8920 ha         1 DDF       0.097000
     47 H15         17.1330    62.0000    22.8920 ha         1 DDF       0.097000
     48 H16         17.3890    64.2670    23.7850 ha         1 DDF       0.135500
     49 HN          17.6760    65.8720    24.5930 hn         1 DDF       0.330500
     50 HA          18.3690    67.5890    26.8620 h1         1 DDF       0.051700
     51 HB1         20.4920    67.6290    25.5170 hc         1 DDF       0.031200
     52 HB2         19.5950    68.2010    24.1160 hc         1 DDF       0.031200
     53 HG1         18.9820    70.2550    25.2910 hc         1 DDF       0.030200
     54 HG2         19.8440    69.6340    26.7900 hc         1 DDF       0.030200
     55 C           18.9680    65.0830    25.9730 c          1 DDF       0.584700
@<TRIPOS>BOND
     1     1     2 1   
     2     1    12 1   
     3     1    32 1   
     4     2     3 1   
     5     2     4 2   
     6     3    33 1   
     7     3    34 1   
     8     4     5 1   
     9     5     6 2   
    10     5     7 1   
    11     7     8 1   
    12     7    12 2   
    13     8     9 1   
    14     8    35 1   
    15     8    36 1   
    16     9    10 1   
    17     9    13 1   
    18     9    37 1   
    19    10    11 1   
    20    10    38 1   
    21    10    39 1   
    22    11    12 1   
    23    11    40 1   
    24    13    14 1   
    25    13    41 1   
    26    13    42 1   
    27    14    18 1   
    28    14    43 1   
    29    14    44 1   
    30    15    16 ar  
    31    15    20 ar  
    32    15    55 1   
    33    16    17 ar  
    34    16    45 1   
    35    17    18 ar  
    36    17    46 1   
    37    18    19 ar  
    38    19    20 ar  
    39    19    47 1   
    40    20    48 1   
    41    21    55 2   
    42    22    23 1   
    43    22    49 1   
    44    22    55 1   
    45    23    24 1   
    46    23    29 1   
    47    23    50 1   
    48    24    25 1   
    49    24    51 1   
    50    24    52 1   
    51    25    26 1   
    52    25    53 1   
    53    25    54 1   
    54    26    27 1   
    55    26    28 1   
    56    29    30 1   
    57    29    31 1   
@<TRIPOS>SUBSTRUCTURE
     1 DDF         1 TEMP              0 ****  ****    0 ROOT
