@<TRIPOS>MOLECULE
DDI
   70    76     1     0     0
SMALL
No Charge or Current Charge


@<TRIPOS>ATOM
      1 N           -3.1180     1.6580     2.3980 n8         1 DDI      -0.997200
      2 C27         -3.7490     0.8350     1.3080 c6         1 DDI       0.147500
      3 C28         -4.9190    -0.0410     1.8660 c6         1 DDI       0.172300
      4 O4          -5.9330     0.7670     2.4950 oh         1 DDI      -0.660000
      5 C29         -5.5660    -0.9000     0.7360 c6         1 DDI       0.096300
      6 O5          -6.6040    -1.7380     1.2960 oh         1 DDI      -0.723000
      7 C30         -4.4510    -1.7310     0.0240 c6         1 DDI       0.153300
      8 C31         -4.9890    -2.5790    -1.1770 c3         1 DDI       0.169600
      9 O6          -3.9550    -3.3030    -1.8720 oh         1 DDI      -0.702000
     10 O7          -3.4330    -0.8320    -0.4820 os         1 DDI      -0.469000
     11 C26         -2.7360    -0.0900     0.5390 c6         1 DDI       0.393300
     12 O3          -1.7030     0.7030    -0.0800 os         1 DDI      -0.433000
     13 C25         -0.4890     0.0250    -0.4860 c5         1 DDI       0.197300
     14 C24         -0.7200    -0.8690    -1.7320 c5         1 DDI      -0.083400
     15 C12          0.7330    -1.0900    -2.2740 c5         1 DDI      -0.168700
     16 C11          1.5830     0.1760    -1.8070 c5         1 DDI      -0.006400
     17 C23          2.6180    -0.4790    -0.9050 ca         1 DDI      -0.059300
     18 C22          3.7250     0.1530    -0.3100 ca         1 DDI      -0.084000
     19 C21          4.6020    -0.5980     0.4980 ca         1 DDI      -0.015000
     20 C20          5.6860     0.0310     1.1380 ca         1 DDI      -0.104000
     21 C19          6.5610    -0.7190     1.9430 ca         1 DDI      -0.097000
     22 C18          6.3560    -2.0990     2.1100 ca         1 DDI      -0.110000
     23 C17          5.2760    -2.7350     1.4720 ca         1 DDI      -0.090000
     24 C16          4.3940    -1.9890     0.6680 ca         1 DDI      -0.056000
     25 C15          3.3170    -2.6230     0.0150 ca         1 DDI      -0.020000
     26 C14          2.4470    -1.8460    -0.7680 ca         1 DDI      -0.189600
     27 C13          1.3420    -2.3570    -1.6100 c          1 DDI       0.585700
     28 O2           1.1390    -3.5370    -1.8680 o          1 DDI      -0.504100
     29 C9           0.5490     1.0850    -1.0020 c5         1 DDI      -0.098700
     30 C10          1.2030     1.8210     0.2160 ca         1 DDI      -0.059300
     31 C1           1.5220     1.1460     1.4270 ca         1 DDI      -0.096000
     32 C2           2.1130     1.8120     2.5110 ca         1 DDI      -0.108000
     33 C3           2.3900     3.1790     2.4280 ca         1 DDI      -0.100000
     34 C4           2.0720     3.8760     1.2570 ca         1 DDI      -0.110000
     35 C5           1.4860     3.2180     0.1580 ca         1 DDI      -0.073300
     36 C6           1.1330     4.0850    -1.0540 c6         1 DDI      -0.025100
     37 C7           0.8540     3.2880    -2.3360 c6         1 DDI      -0.181400
     38 C8          -0.0640     2.1070    -2.0230 c          1 DDI       0.588100
     39 O1          -1.1670     2.0630    -2.5560 o          1 DDI      -0.499100
     40 HN1         -2.5110     2.3620     1.9620 hn         1 DDI       0.411000
     41 HN2         -3.8630     2.2100     2.8410 hn         1 DDI       0.411000
     42 H27         -4.1750     1.5410     0.5790 h1         1 DDI       0.053700
     43 H28         -4.4930    -0.7340     2.6080 h1         1 DDI       0.057700
     44 HO4         -6.7080     0.1650     2.5770 ho         1 DDI       0.459000
     45 H29         -6.0000    -0.2120    -0.0060 h1         1 DDI       0.056700
     46 HO5         -7.2400    -1.9550     0.5730 ho         1 DDI       0.510000
     47 H30         -3.9890    -2.4200     0.7460 h1         1 DDI       0.060700
     48 H31A        -5.7380    -3.2850    -0.7940 h1         1 DDI       0.024200
     49 H31B        -5.5030    -1.9010    -1.8720 h1         1 DDI       0.024200
     50 HO6         -4.3820    -3.7430    -2.6440 ho         1 DDI       0.505000
     51 H26         -2.2780    -0.7890     1.2550 h2         1 DDI       0.040700
     52 H25         -0.1210    -0.5930     0.3410 h1         1 DDI       0.046700
     53 H24A        -1.2060    -1.8170    -1.4720 hc         1 DDI       0.085200
     54 H24B        -1.3660    -0.3990    -2.4790 hc         1 DDI       0.085200
     55 H12          0.7160    -1.2470    -3.3580 hc         1 DDI       0.088700
     56 H11          2.0630     0.6830    -2.6520 hc         1 DDI       0.071700
     57 H22          3.8840     1.2200    -0.4520 ha         1 DDI       0.123000
     58 H20          5.8510     1.0990     1.0140 ha         1 DDI       0.116000
     59 H19          7.3970    -0.2300     2.4380 ha         1 DDI       0.115000
     60 H18          7.0350    -2.6770     2.7320 ha         1 DDI       0.116000
     61 H17          5.1280    -3.8040     1.6050 ha         1 DDI       0.117000
     62 H15          3.1680    -3.6970     0.1040 ha         1 DDI       0.132000
     63 H1           1.3600     0.0790     1.5400 ha         1 DDI       0.118000
     64 H2           2.3610     1.2620     3.4160 ha         1 DDI       0.116000
     65 H3           2.8460     3.6980     3.2680 ha         1 DDI       0.114000
     66 H4           2.2780     4.9430     1.2050 ha         1 DDI       0.111000
     67 H6A          1.9380     4.8080    -1.2470 hc         1 DDI       0.055700
     68 H6B          0.2440     4.6820    -0.8060 hc         1 DDI       0.055700
     69 H7A          1.8310     2.8980    -2.6430 hc         1 DDI       0.068200
     70 H7B          0.4330     3.9180    -3.1300 hc         1 DDI       0.068200
@<TRIPOS>BOND
     1     1     2 1   
     2     1    40 1   
     3     1    41 1   
     4     2     3 1   
     5     2    11 1   
     6     2    42 1   
     7     3     4 1   
     8     3     5 1   
     9     3    43 1   
    10     4    44 1   
    11     5     6 1   
    12     5     7 1   
    13     5    45 1   
    14     6    46 1   
    15     7     8 1   
    16     7    10 1   
    17     7    47 1   
    18     8     9 1   
    19     8    48 1   
    20     8    49 1   
    21     9    50 1   
    22    10    11 1   
    23    11    12 1   
    24    11    51 1   
    25    12    13 1   
    26    13    14 1   
    27    13    29 1   
    28    13    52 1   
    29    14    15 1   
    30    14    53 1   
    31    14    54 1   
    32    15    16 1   
    33    15    27 1   
    34    15    55 1   
    35    16    17 1   
    36    16    29 1   
    37    16    56 1   
    38    17    18 ar  
    39    17    26 ar  
    40    18    19 ar  
    41    18    57 1   
    42    19    20 ar  
    43    19    24 ar  
    44    20    21 ar  
    45    20    58 1   
    46    21    22 ar  
    47    21    59 1   
    48    22    23 ar  
    49    22    60 1   
    50    23    24 ar  
    51    23    61 1   
    52    24    25 ar  
    53    25    26 ar  
    54    25    62 1   
    55    26    27 1   
    56    27    28 2   
    57    29    30 1   
    58    29    38 1   
    59    30    31 ar  
    60    30    35 ar  
    61    31    32 ar  
    62    31    63 1   
    63    32    33 ar  
    64    32    64 1   
    65    33    34 ar  
    66    33    65 1   
    67    34    35 ar  
    68    34    66 1   
    69    35    36 1   
    70    36    37 1   
    71    36    67 1   
    72    36    68 1   
    73    37    38 1   
    74    37    69 1   
    75    37    70 1   
    76    38    39 2   
@<TRIPOS>SUBSTRUCTURE
     1 DDI         1 TEMP              0 ****  ****    0 ROOT
