@<TRIPOS>MOLECULE
DDI
   70    76     1     0     0
SMALL
abcg2


@<TRIPOS>ATOM
      1 N           -3.0770     2.2430     1.4270 n8         1 DDI      -0.997200
      2 C27         -3.7520     1.2110     0.6630 c6         1 DDI       0.147500
      3 C28         -4.7960     0.5220     1.5340 c6         1 DDI       0.172300
      4 O4          -5.7850     1.4660     1.8620 oh         1 DDI      -0.660000
      5 C29         -5.3910    -0.6940     0.8300 c6         1 DDI       0.096300
      6 O5          -6.2600    -1.3180     1.7500 oh         1 DDI      -0.723000
      7 C30         -4.2580    -1.6260     0.3880 c6         1 DDI       0.153300
      8 C31         -4.7520    -2.8190    -0.4000 c3         1 DDI       0.169600
      9 O6          -3.6550    -3.6440    -0.7070 oh         1 DDI      -0.702000
     10 O7          -3.3680    -0.9020    -0.4350 os         1 DDI      -0.469000
     11 C26         -2.7390     0.1590     0.2300 c6         1 DDI       0.393300
     12 O3          -1.8470     0.7390    -0.6470 os         1 DDI      -0.433000
     13 C25         -0.6680     0.0160    -0.8970 c5         1 DDI       0.197300
     14 C24         -0.6680    -0.8730    -2.1340 c5         1 DDI      -0.083400
     15 C12          0.8220    -1.0620    -2.4160 c5         1 DDI      -0.168700
     16 C11          1.5870     0.1620    -1.8480 c5         1 DDI      -0.006400
     17 C23          2.7200    -0.4260    -1.0580 ca         1 DDI      -0.059300
     18 C22          3.7670     0.2190    -0.4640 ca         1 DDI      -0.084000
     19 C21          4.7140    -0.5280     0.2730 ca         1 DDI      -0.015000
     20 C20          5.8070     0.1000     0.9170 ca         1 DDI      -0.104000
     21 C19          6.7100    -0.6320     1.6360 ca         1 DDI      -0.097000
     22 C18          6.5710    -2.0340     1.7500 ca         1 DDI      -0.110000
     23 C17          5.5290    -2.6720     1.1400 ca         1 DDI      -0.090000
     24 C16          4.5740    -1.9440     0.3890 ca         1 DDI      -0.056000
     25 C15          3.4940    -2.5840    -0.2510 ca         1 DDI      -0.020000
     26 C14          2.6020    -1.8250    -0.9610 ca         1 DDI      -0.189600
     27 C13          1.4230    -2.2740    -1.7150 c          1 DDI       0.585700
     28 O2           0.9970    -3.4040    -1.7800 o          1 DDI      -0.504100
     29 C9           0.5130     0.9980    -1.0420 c5         1 DDI      -0.098700
     30 C10          0.9400     1.5160     0.3250 ca         1 DDI      -0.059300
     31 C1           1.2640     0.6070     1.3360 ca         1 DDI      -0.096000
     32 C2           1.6030     1.0230     2.6100 ca         1 DDI      -0.108000
     33 C3           1.6280     2.3790     2.9080 ca         1 DDI      -0.100000
     34 C4           1.3150     3.2920     1.9190 ca         1 DDI      -0.110000
     35 C5           0.9700     2.8780     0.6320 ca         1 DDI      -0.073300
     36 C6           0.6370     3.9170    -0.4000 c6         1 DDI      -0.025100
     37 C7           0.9400     3.4040    -1.8000 c6         1 DDI      -0.181400
     38 C8           0.1710     2.1340    -2.0090 c          1 DDI       0.588100
     39 O1          -0.6250     2.0060    -2.9090 o          1 DDI      -0.499100
     40 HN1         -2.3740     2.6850     0.8500 hn         1 DDI       0.411000
     41 HN2         -3.7370     2.9700     1.6700 hn         1 DDI       0.411000
     42 H27         -4.2530     1.5840    -0.2460 h1         1 DDI       0.053700
     43 H28         -4.2830     0.1650     2.4430 h1         1 DDI       0.057700
     44 HO4         -6.4230     1.0380     2.4420 ho         1 DDI       0.459000
     45 H29         -5.9360    -0.3540    -0.0620 h1         1 DDI       0.056700
     46 HO5         -6.9540    -1.7760     1.2680 ho         1 DDI       0.510000
     47 H30         -3.7350    -1.9870     1.2900 h1         1 DDI       0.060700
     48 H31A        -5.4970    -3.3490     0.2050 h1         1 DDI       0.024200
     49 H31B        -5.2640    -2.4620    -1.3050 h1         1 DDI       0.024200
     50 HO6         -3.9860    -4.4180    -1.1700 ho         1 DDI       0.505000
     51 H26         -2.2140    -0.2220     1.1280 h2         1 DDI       0.040700
     52 H25         -0.4600    -0.6320    -0.0360 h1         1 DDI       0.046700
     53 H24A        -1.1770    -1.8200    -1.9500 hc         1 DDI       0.085200
     54 H24B        -1.1640    -0.3870    -2.9710 hc         1 DDI       0.085200
     55 H12          1.0140    -1.1870    -3.4850 hc         1 DDI       0.088700
     56 H11          2.0030     0.7770    -2.6500 hc         1 DDI       0.071700
     57 H22          3.8760     1.2950    -0.5290 ha         1 DDI       0.123000
     58 H20          5.9190     1.1740     0.8330 ha         1 DDI       0.116000
     59 H19          7.5410    -0.1390     2.1230 ha         1 DDI       0.115000
     60 H18          7.2960    -2.5980     2.3220 ha         1 DDI       0.116000
     61 H17          5.4180    -3.7470     1.2250 ha         1 DDI       0.117000
     62 H15          3.3840    -3.6600    -0.1820 ha         1 DDI       0.132000
     63 H1           1.2600    -0.4570     1.1380 ha         1 DDI       0.118000
     64 H2           1.8500     0.2890     3.3660 ha         1 DDI       0.116000
     65 H3           1.8970     2.7190     3.9000 ha         1 DDI       0.114000
     66 H4           1.3400     4.3530     2.1380 ha         1 DDI       0.111000
     67 H6A          1.2030     4.8300    -0.2080 hc         1 DDI       0.055700
     68 H6B         -0.4200     4.1950    -0.3310 hc         1 DDI       0.055700
     69 H7A          2.0120     3.1980    -1.8850 hc         1 DDI       0.068200
     70 H7B          0.6730     4.1310    -2.5660 hc         1 DDI       0.068200
@<TRIPOS>BOND
     1     1     2 1   
     2     1    40 1   
     3     1    41 1   
     4     2     3 1   
     5     2    11 1   
     6     2    42 1   
     7     3     4 1   
     8     3     5 1   
     9     3    43 1   
    10     4    44 1   
    11     5     6 1   
    12     5     7 1   
    13     5    45 1   
    14     6    46 1   
    15     7     8 1   
    16     7    10 1   
    17     7    47 1   
    18     8     9 1   
    19     8    48 1   
    20     8    49 1   
    21     9    50 1   
    22    10    11 1   
    23    11    12 1   
    24    11    51 1   
    25    12    13 1   
    26    13    14 1   
    27    13    29 1   
    28    13    52 1   
    29    14    15 1   
    30    14    53 1   
    31    14    54 1   
    32    15    16 1   
    33    15    27 1   
    34    15    55 1   
    35    16    17 1   
    36    16    29 1   
    37    16    56 1   
    38    17    18 ar  
    39    17    26 ar  
    40    18    19 ar  
    41    18    57 1   
    42    19    20 ar  
    43    19    24 ar  
    44    20    21 ar  
    45    20    58 1   
    46    21    22 ar  
    47    21    59 1   
    48    22    23 ar  
    49    22    60 1   
    50    23    24 ar  
    51    23    61 1   
    52    24    25 ar  
    53    25    26 ar  
    54    25    62 1   
    55    26    27 1   
    56    27    28 2   
    57    29    30 1   
    58    29    38 1   
    59    30    31 ar  
    60    30    35 ar  
    61    31    32 ar  
    62    31    63 1   
    63    32    33 ar  
    64    32    64 1   
    65    33    34 ar  
    66    33    65 1   
    67    34    35 ar  
    68    34    66 1   
    69    35    36 1   
    70    36    37 1   
    71    36    67 1   
    72    36    68 1   
    73    37    38 1   
    74    37    69 1   
    75    37    70 1   
    76    38    39 2   
@<TRIPOS>SUBSTRUCTURE
     1 DDI         1 TEMP              0 ****  ****    0 ROOT
