@<TRIPOS>MOLECULE
DDJ
   34    35     1     0     0
SMALL
abcg2


@<TRIPOS>ATOM
      1 NAA          4.7220    -1.4070     0.4260 nv         1 DDJ      -1.051500
      2 OAC          4.0870     1.0820    -0.3430 os         1 DDJ      -0.352600
      3 CAD         -1.7410    -0.6630    -0.1080 ca         1 DDJ      -0.151500
      4 CAE          1.7160     0.6760    -0.0570 ca         1 DDJ      -0.151500
      5 CAF          3.0420     0.2840    -0.0210 ca         1 DDJ       0.081100
      6 CAG          3.3920    -1.0310     0.3500 ca         1 DDJ       0.259500
      7 CAH          0.6820    -0.2060     0.2880 cp         1 DDJ      -0.032000
      8 CAI          1.0310    -1.4980     0.6620 ca         1 DDJ      -0.096500
      9 CAJ          2.3600    -1.9000     0.6870 ca         1 DDJ      -0.155000
     10 CAK         -3.0690    -0.2740    -0.1470 ca         1 DDJ       0.081100
     11 CAL         -0.7250     0.2350     0.2490 cp         1 DDJ      -0.032000
     12 CAM         -3.4380     1.0470     0.1790 ca         1 DDJ       0.259500
     13 CAN         -2.4250     1.9310     0.5310 ca         1 DDJ      -0.155000
     14 CAO         -1.0930     1.5370     0.5650 ca         1 DDJ      -0.096500
     15 CAP         -3.8160    -2.4320    -0.8080 c3         1 DDJ       0.151900
     16 CAQ          3.8220     2.4090    -0.7470 c3         1 DDJ       0.151900
     17 NAR         -4.7600     1.4450     0.0820 nv         1 DDJ      -1.051500
     18 HNAA         5.3410    -0.9310    -0.2110 hn         1 DDJ       0.444250
     19 HNAB         4.8680    -2.4040     0.3870 hn         1 DDJ       0.444250
     20 HAD         -1.4680    -1.6720    -0.3880 ha         1 DDJ       0.117000
     21 HAE          1.4590     1.6760    -0.3810 ha         1 DDJ       0.117000
     22 HAI          0.2680    -2.2080     0.9570 ha         1 DDJ       0.112500
     23 HAJ          2.6060    -2.9130     0.9840 ha         1 DDJ       0.112500
     24 HAN         -2.6870     2.9490     0.7960 ha         1 DDJ       0.112500
     25 HAO         -0.3440     2.2590     0.8690 ha         1 DDJ       0.112500
     26 HAP         -3.3550    -2.9610     0.0300 h1         1 DDJ       0.038867
     27 HAPA        -4.7690    -2.9020    -1.0370 h1         1 DDJ       0.038867
     28 HAPB        -3.1630    -2.5200    -1.6810 h1         1 DDJ       0.038867
     29 HAQ          3.2170     2.4460    -1.6560 h1         1 DDJ       0.038867
     30 HAQA         3.3160     2.9800     0.0360 h1         1 DDJ       0.038867
     31 HAQB         4.7850     2.8700    -0.9490 h1         1 DDJ       0.038867
     32 HNAR        -5.4410     0.7250     0.2640 hn         1 DDJ       0.444250
     33 HNAC        -4.9770     2.2820     0.6000 hn         1 DDJ       0.444250
     34 OAB         -4.0950    -1.0850    -0.4930 os         1 DDJ      -0.352600
@<TRIPOS>BOND
     1     1     6 1   
     2     1    18 1   
     3     1    19 1   
     4     2     5 1   
     5     2    16 1   
     6     3    10 ar  
     7     3    11 ar  
     8     3    20 1   
     9     4     5 ar  
    10     4     7 ar  
    11     4    21 1   
    12     5     6 ar  
    13     6     9 ar  
    14     7     8 ar  
    15     7    11 1   
    16     8     9 ar  
    17     8    22 1   
    18     9    23 1   
    19    10    12 ar  
    20    10    34 1   
    21    11    14 ar  
    22    12    13 ar  
    23    12    17 1   
    24    13    14 ar  
    25    13    24 1   
    26    14    25 1   
    27    15    26 1   
    28    15    27 1   
    29    15    28 1   
    30    15    34 1   
    31    16    29 1   
    32    16    30 1   
    33    16    31 1   
    34    17    32 1   
    35    17    33 1   
@<TRIPOS>SUBSTRUCTURE
     1 DDJ         1 TEMP              0 ****  ****    0 ROOT
