@<TRIPOS>MOLECULE
DDJ
   34    35     1     0     0
SMALL
No Charge or Current Charge


@<TRIPOS>ATOM
      1 NAA          4.7250    -1.4880     0.3910 nv         1 DDJ      -1.051500
      2 OAC          4.1150     1.1280    -0.4320 os         1 DDJ      -0.352600
      3 CAD         -1.7670    -0.6740    -0.1070 ca         1 DDJ      -0.151500
      4 CAE          1.7340     0.6740    -0.0760 ca         1 DDJ      -0.151500
      5 CAF          3.0900     0.2690    -0.0550 ca         1 DDJ       0.081100
      6 CAG          3.4170    -1.0510     0.3550 ca         1 DDJ       0.259500
      7 CAH          0.6950    -0.2140     0.3030 cp         1 DDJ      -0.032000
      8 CAI          1.0530    -1.5230     0.7050 ca         1 DDJ      -0.096500
      9 CAJ          2.3960    -1.9350     0.7300 ca         1 DDJ      -0.155000
     10 CAK         -3.1220    -0.2690    -0.1310 ca         1 DDJ       0.081100
     11 CAL         -0.7380     0.2220     0.2790 cp         1 DDJ      -0.032000
     12 CAM         -3.4600     1.0600     0.2390 ca         1 DDJ       0.259500
     13 CAN         -2.4480     1.9520     0.6240 ca         1 DDJ      -0.155000
     14 CAO         -1.1050     1.5400     0.6430 ca         1 DDJ      -0.096500
     15 CAP         -3.8880    -2.5030    -0.8930 c3         1 DDJ       0.151900
     16 CAQ          3.8750     2.4820    -0.8570 c3         1 DDJ       0.151900
     17 NAR         -4.7670     1.4970     0.2320 nv         1 DDJ      -1.051500
     18 HNAA         5.4490    -0.8900    -0.0030 hn         1 DDJ       0.444250
     19 HNAB         4.9340    -2.4780     0.5070 hn         1 DDJ       0.444250
     20 HAD         -1.4900    -1.6810    -0.4000 ha         1 DDJ       0.117000
     21 HAE          1.4650     1.6730    -0.4010 ha         1 DDJ       0.117000
     22 HAI          0.2830    -2.2250     1.0160 ha         1 DDJ       0.112500
     23 HAJ          2.6390    -2.9460     1.0480 ha         1 DDJ       0.112500
     24 HAN         -2.6990     2.9700     0.9110 ha         1 DDJ       0.112500
     25 HAO         -0.3430     2.2480     0.9580 ha         1 DDJ       0.112500
     26 HAP         -3.4150    -3.0600    -0.0740 h1         1 DDJ       0.038867
     27 HAPA        -4.8290    -3.0060    -1.1460 h1         1 DDJ       0.038867
     28 HAPB        -3.2330    -2.5450    -1.7730 h1         1 DDJ       0.038867
     29 HAQ          3.2390     2.5030    -1.7520 h1         1 DDJ       0.038867
     30 HAQA         3.3850     3.0600    -0.0620 h1         1 DDJ       0.038867
     31 HAQB         4.8220     2.9770    -1.1020 h1         1 DDJ       0.038867
     32 HNAR        -5.5080     0.8160     0.0760 hn         1 DDJ       0.444250
     33 HNAC        -5.0170     2.3830     0.6670 hn         1 DDJ       0.444250
     34 OAB         -4.1390    -1.1390    -0.5060 os         1 DDJ      -0.352600
@<TRIPOS>BOND
     1     1     6 1   
     2     1    18 1   
     3     1    19 1   
     4     2     5 1   
     5     2    16 1   
     6     3    10 ar  
     7     3    11 ar  
     8     3    20 1   
     9     4     5 ar  
    10     4     7 ar  
    11     4    21 1   
    12     5     6 ar  
    13     6     9 ar  
    14     7     8 ar  
    15     7    11 1   
    16     8     9 ar  
    17     8    22 1   
    18     9    23 1   
    19    10    12 ar  
    20    10    34 1   
    21    11    14 ar  
    22    12    13 ar  
    23    12    17 1   
    24    13    14 ar  
    25    13    24 1   
    26    14    25 1   
    27    15    26 1   
    28    15    27 1   
    29    15    28 1   
    30    15    34 1   
    31    16    29 1   
    32    16    30 1   
    33    16    31 1   
    34    17    32 1   
    35    17    33 1   
@<TRIPOS>SUBSTRUCTURE
     1 DDJ         1 TEMP              0 ****  ****    0 ROOT
