@<TRIPOS>MOLECULE
DDK
   28    27     1     0     0
SMALL
No Charge or Current Charge


@<TRIPOS>ATOM
      1 OAB          2.1300    -2.3860    -1.1290 o          1 DDK      -0.721500
      2 CAK          1.6550    -1.8830    -0.1200 c          1 DDK       0.719000
      3 OAC          1.8580    -2.3160     1.0050 o          1 DDK      -0.721500
      4 CAL          0.6970    -0.6880    -0.2870 c3         1 DDK      -0.198700
      5 CAF          1.2640     0.5540     0.4340 c3         1 DDK       0.191600
      6 SED          2.8860     1.1420    -0.2410 sh         1 DDK      -0.489800
      7 CAJ         -0.7380    -1.0640     0.1830 c3         1 DDK      -0.059400
      8 CAI         -1.8310    -0.0360    -0.1950 c3         1 DDK      -0.078400
      9 CAH         -3.2510    -0.4910     0.2090 c3         1 DDK      -0.076400
     10 CAG         -4.3450     0.5330    -0.1640 c3         1 DDK      -0.078400
     11 CAE         -5.7600     0.0710     0.2420 c3         1 DDK       0.146800
     12 NAA         -6.7830     1.0670    -0.1260 n8         1 DDK      -0.998200
     13 H2           0.6400    -0.4530    -1.3570 hc         1 DDK       0.040700
     14 H3           0.5600     1.3900     0.3410 h1         1 DDK       0.030700
     15 H4           1.3890     0.3400     1.5040 h1         1 DDK       0.030700
     16 H5           3.0220     2.1890     0.6070 hs         1 DDK       0.149800
     17 H6          -1.0050    -2.0310    -0.2640 hc         1 DDK       0.046200
     18 H7          -0.7400    -1.2130     1.2700 hc         1 DDK       0.046200
     19 H8          -1.6200     0.9240     0.2910 hc         1 DDK       0.026700
     20 H9          -1.8040     0.1380    -1.2780 hc         1 DDK       0.026700
     21 H10         -3.4740    -1.4490    -0.2770 hc         1 DDK       0.035200
     22 H11         -3.2780    -0.6680     1.2920 hc         1 DDK       0.035200
     23 H12         -4.1230     1.4900     0.3250 hc         1 DDK       0.040200
     24 H13         -4.3180     0.7090    -1.2470 hc         1 DDK       0.040200
     25 H14         -5.9980    -0.8780    -0.2580 h1         1 DDK       0.025200
     26 H15         -5.8000    -0.0890     1.3290 h1         1 DDK       0.025200
     27 H16         -6.8030     1.1610    -1.1480 hn         1 DDK       0.384000
     28 H17         -7.7120     0.6900     0.1000 hn         1 DDK       0.384000
@<TRIPOS>BOND
     1     1     2 1   
     2     2     3 1   
     3     2     4 1   
     4     4     5 1   
     5     4     7 1   
     6     4    13 1   
     7     5     6 1   
     8     5    14 1   
     9     5    15 1   
    10     6    16 1   
    11     7     8 1   
    12     7    17 1   
    13     7    18 1   
    14     8     9 1   
    15     8    19 1   
    16     8    20 1   
    17     9    10 1   
    18     9    21 1   
    19     9    22 1   
    20    10    11 1   
    21    10    23 1   
    22    10    24 1   
    23    11    12 1   
    24    11    25 1   
    25    11    26 1   
    26    12    27 1   
    27    12    28 1   
@<TRIPOS>SUBSTRUCTURE
     1 DDK         1 TEMP              0 ****  ****    0 ROOT
