@<TRIPOS>MOLECULE
DDK
   28    27     1     0     0
SMALL
abcg2


@<TRIPOS>ATOM
      1 OAB          1.2830    -2.9800    -0.5890 o          1 DDK      -0.721500
      2 CAK          1.6340    -1.9070    -0.0620 c          1 DDK       0.719000
      3 OAC          2.6930    -1.7120     0.5730 o          1 DDK      -0.721500
      4 CAL          0.6760    -0.7050    -0.2200 c3         1 DDK      -0.198700
      5 CAF          1.1330     0.5050     0.5800 c3         1 DDK       0.191600
      6 SED          2.9680     1.0540     0.1250 sh         1 DDK      -0.489800
      7 CAJ         -0.7570    -1.1010     0.1560 c3         1 DDK      -0.059400
      8 CAI         -1.8040    -0.0210    -0.0990 c3         1 DDK      -0.078400
      9 CAH         -3.2270    -0.5280     0.1080 c3         1 DDK      -0.076400
     10 CAG         -4.2850     0.5510    -0.0830 c3         1 DDK      -0.078400
     11 CAE         -5.7010     0.0260     0.0930 c3         1 DDK       0.146800
     12 NAA         -6.6810     1.0900    -0.0760 n8         1 DDK      -0.998200
     13 H2           0.6710    -0.4320    -1.2840 hc         1 DDK       0.040700
     14 H3           0.4900     1.3650     0.3910 h1         1 DDK       0.030700
     15 H4           1.0930     0.2940     1.6500 h1         1 DDK       0.030700
     16 H5           2.6410     2.4670    -0.0630 hs         1 DDK       0.149800
     17 H6          -1.0210    -1.9920    -0.4170 hc         1 DDK       0.046200
     18 H7          -0.7920    -1.3940     1.2120 hc         1 DDK       0.046200
     19 H8          -1.6330     0.8380     0.5570 hc         1 DDK       0.026700
     20 H9          -1.6970     0.3530    -1.1240 hc         1 DDK       0.026700
     21 H10         -3.4200    -1.3550    -0.5840 hc         1 DDK       0.035200
     22 H11         -3.3180    -0.9490     1.1160 hc         1 DDK       0.035200
     23 H12         -4.1140     1.3670     0.6270 hc         1 DDK       0.040200
     24 H13         -4.1830     0.9870    -1.0840 hc         1 DDK       0.040200
     25 H14         -5.8530    -0.8210    -0.5920 h1         1 DDK       0.025200
     26 H15         -5.8080    -0.3780     1.1040 h1         1 DDK       0.025200
     27 H16         -6.6590     1.4140    -1.0350 hn         1 DDK       0.384000
     28 H17         -7.6120     0.7160     0.0610 hn         1 DDK       0.384000
@<TRIPOS>BOND
     1     1     2 1   
     2     2     3 1   
     3     2     4 1   
     4     4     5 1   
     5     4     7 1   
     6     4    13 1   
     7     5     6 1   
     8     5    14 1   
     9     5    15 1   
    10     6    16 1   
    11     7     8 1   
    12     7    17 1   
    13     7    18 1   
    14     8     9 1   
    15     8    19 1   
    16     8    20 1   
    17     9    10 1   
    18     9    21 1   
    19     9    22 1   
    20    10    11 1   
    21    10    23 1   
    22    10    24 1   
    23    11    12 1   
    24    11    25 1   
    25    11    26 1   
    26    12    27 1   
    27    12    28 1   
@<TRIPOS>SUBSTRUCTURE
     1 DDK         1 TEMP              0 ****  ****    0 ROOT
