@<TRIPOS>MOLECULE
DDL
   22    22     1     0     0
SMALL
No Charge or Current Charge


@<TRIPOS>ATOM
      1 C1           3.8740     4.3510    20.0010 c6         1 DDL       0.396300
      2 C2           4.2200     5.4320    18.9510 c6         1 DDL      -0.109400
      3 C3           5.7440     5.4350    18.6550 c6         1 DDL       0.144300
      4 C4           6.5680     5.5160    19.9790 c6         1 DDL       0.109300
      5 C5           6.0900     4.3640    20.9170 c6         1 DDL       0.148300
      6 C6           6.8080     4.3420    22.2900 c3         1 DDL      -0.083100
      7 O1           2.5490     4.4980    20.4500 oh         1 DDL      -0.635000
      8 O5           4.6770     4.5180    21.1730 os         1 DDL      -0.499000
      9 O3           6.0780     6.5460    17.8190 oh         1 DDL      -0.639000
     10 O4           6.3560     6.8040    20.5980 oh         1 DDL      -0.701000
     11 H1           4.0260     3.3440    19.5850 h2         1 DDL       0.012700
     12 H2           3.8980     6.4160    19.3150 hc         1 DDL       0.077700
     13 H22          3.6600     5.2400    18.0280 hc         1 DDL       0.077700
     14 H3           5.9990     4.4950    18.1430 h1         1 DDL       0.024700
     15 H4           7.6330     5.3690    19.7450 h1         1 DDL       0.071700
     16 H5           6.2620     3.3940    20.4260 h1         1 DDL       0.033700
     17 H61          6.4700     3.4900    22.8920 hc         1 DDL       0.049367
     18 H62          7.8930     4.2450    22.1620 hc         1 DDL       0.049367
     19 H63          6.6180     5.2550    22.8660 hc         1 DDL       0.049367
     20 HO1          2.6320     4.3630    21.4170 ho         1 DDL       0.459000
     21 HO3          6.3020     7.2660    18.4520 ho         1 DDL       0.447000
     22 HO4          5.5730     6.6860    21.1860 ho         1 DDL       0.518000
@<TRIPOS>BOND
     1     1     2 1   
     2     1     7 1   
     3     1     8 1   
     4     1    11 1   
     5     2     3 1   
     6     2    12 1   
     7     2    13 1   
     8     3     4 1   
     9     3     9 1   
    10     3    14 1   
    11     4     5 1   
    12     4    10 1   
    13     4    15 1   
    14     5     6 1   
    15     5     8 1   
    16     5    16 1   
    17     6    17 1   
    18     6    18 1   
    19     6    19 1   
    20     7    20 1   
    21     9    21 1   
    22    10    22 1   
@<TRIPOS>SUBSTRUCTURE
     1 DDL         1 TEMP              0 ****  ****    0 ROOT
