@<TRIPOS>MOLECULE
DDL
   22    22     1     0     0
SMALL
abcg2


@<TRIPOS>ATOM
      1 C1           3.9020     4.3840    20.0630 c6         1 DDL       0.396300
      2 C2           4.2030     5.5030    19.0810 c6         1 DDL      -0.109400
      3 C3           5.6960     5.5490    18.7860 c6         1 DDL       0.144300
      4 C4           6.5010     5.6120    20.0910 c6         1 DDL       0.109300
      5 C5           6.0780     4.4350    20.9740 c6         1 DDL       0.148300
      6 C6           6.8060     4.3810    22.3000 c3         1 DDL      -0.083100
      7 O1           2.5700     4.4470    20.4220 oh         1 DDL      -0.635000
      8 O5           4.6860     4.5230    21.2310 os         1 DDL      -0.499000
      9 O3           5.9390     6.6410    17.9350 oh         1 DDL      -0.639000
     10 O4           6.3710     6.8470    20.7510 oh         1 DDL      -0.701000
     11 H1           4.1490     3.4150    19.5960 h2         1 DDL       0.012700
     12 H2           3.8670     6.4570    19.5000 hc         1 DDL       0.077700
     13 H22          3.6460     5.3380    18.1550 hc         1 DDL       0.077700
     14 H3           5.9740     4.6030    18.2950 h1         1 DDL       0.024700
     15 H4           7.5650     5.5000    19.8550 h1         1 DDL       0.071700
     16 H5           6.2970     3.5070    20.4210 h1         1 DDL       0.033700
     17 H61          6.4980     3.5070    22.8730 hc         1 DDL       0.049367
     18 H62          7.8800     4.3060    22.1310 hc         1 DDL       0.049367
     19 H63          6.6200     5.2690    22.9030 hc         1 DDL       0.049367
     20 HO1          2.3210     3.6270    20.8620 ho         1 DDL       0.459000
     21 HO3          6.8650     6.6220    17.6720 ho         1 DDL       0.447000
     22 HO4          5.4960     6.8950    21.1520 ho         1 DDL       0.518000
@<TRIPOS>BOND
     1     1     2 1   
     2     1     7 1   
     3     1     8 1   
     4     1    11 1   
     5     2     3 1   
     6     2    12 1   
     7     2    13 1   
     8     3     4 1   
     9     3     9 1   
    10     3    14 1   
    11     4     5 1   
    12     4    10 1   
    13     4    15 1   
    14     5     6 1   
    15     5     8 1   
    16     5    16 1   
    17     6    17 1   
    18     6    18 1   
    19     6    19 1   
    20     7    20 1   
    21     9    21 1   
    22    10    22 1   
@<TRIPOS>SUBSTRUCTURE
     1 DDL         1 TEMP              0 ****  ****    0 ROOT
