@<TRIPOS>MOLECULE
DDM
   24    24     1     0     0
SMALL
bcc


@<TRIPOS>ATOM
      1 C2          -1.0650    -0.2460    -1.6230 c6         1 DDM       0.122100
      2 C3           0.4290    -0.4640    -1.4070 c6         1 DDM       0.120100
      3 C1          -1.7980    -0.7230    -0.3750 c6         1 DDM       0.126800
      4 C4           0.9140     0.2080    -0.1250 c6         1 DDM       0.154100
      5 C5           0.0830    -0.2710     1.0660 c6         1 DDM       0.177500
      6 C6           0.4950     0.4460     2.3400 c3         1 DDM       0.140400
      7 O2          -1.2800     1.1190    -1.8960 oh         1 DDM      -0.568800
      8 O3           1.2190     0.0300    -2.4640 oh         1 DDM      -0.589800
      9 O4           2.2660    -0.1080     0.1230 oh         1 DDM      -0.607800
     10 N5          -1.3150    -0.0070     0.7860 n7         1 DDM      -0.808200
     11 O6          -0.2660    -0.0730     3.4100 oh         1 DDM      -0.613800
     12 HC2         -1.3920    -0.8710    -2.4700 h1         1 DDM       0.025700
     13 HC3          0.5770    -1.5480    -1.2840 h1         1 DDM       0.036700
     14 HC11        -1.6650    -1.8150    -0.2990 h1         1 DDM       0.034700
     15 HC12        -2.8720    -0.5490    -0.4810 h1         1 DDM       0.034700
     16 HC4          0.7770     1.2960    -0.2220 h1         1 DDM       0.073700
     17 HC5          0.2810    -1.3520     1.1950 h1         1 DDM       0.039700
     18 HC61         0.3190     1.5220     2.2070 h1         1 DDM       0.039700
     19 HC62         1.5680     0.3060     2.5090 h1         1 DDM       0.039700
     20 HO2         -2.2290     1.2710    -1.9380 ho         1 DDM       0.402000
     21 HO3          1.1010    -0.5400    -3.2300 ho         1 DDM       0.407000
     22 HO4          2.7760     0.1620    -0.6480 ho         1 DDM       0.423000
     23 HN5         -1.8740    -0.2480     1.5940 hn         1 DDM       0.381800
     24 HO6         -0.1000     0.4670     4.1870 ho         1 DDM       0.409000
@<TRIPOS>BOND
     1     1     2 1   
     2     1     3 1   
     3     1     7 1   
     4     1    12 1   
     5     2     4 1   
     6     2     8 1   
     7     2    13 1   
     8     3    10 1   
     9     3    14 1   
    10     3    15 1   
    11     4     5 1   
    12     4     9 1   
    13     4    16 1   
    14     5     6 1   
    15     5    10 1   
    16     5    17 1   
    17     6    11 1   
    18     6    18 1   
    19     6    19 1   
    20     7    20 1   
    21     8    21 1   
    22     9    22 1   
    23    10    23 1   
    24    11    24 1   
@<TRIPOS>SUBSTRUCTURE
     1 DDM         1 TEMP              0 ****  ****    0 ROOT
