@<TRIPOS>MOLECULE
DDM
   24    24     1     0     0
SMALL
No Charge or Current Charge


@<TRIPOS>ATOM
      1 C2          -1.0000    -0.4380    -1.7300 c6         1 DDM       0.145300
      2 C3           0.5280    -0.6060    -1.4540 c6         1 DDM       0.143300
      3 C1          -1.8010    -0.8890    -0.4760 c6         1 DDM       0.126800
      4 C4           0.9580     0.1620    -0.1590 c6         1 DDM       0.177300
      5 C5           0.0350    -0.2380     1.0440 c6         1 DDM       0.177500
      6 C6           0.3690     0.5620     2.3470 c3         1 DDM       0.163600
      7 O2          -1.3110     0.9390    -2.0000 oh         1 DDM      -0.691000
      8 O3           1.2920    -0.1440    -2.5850 oh         1 DDM      -0.652000
      9 O4           2.3520    -0.0960     0.1150 oh         1 DDM      -0.730000
     10 N5          -1.4110    -0.0670     0.6960 n7         1 DDM      -0.863400
     11 O6          -0.4830     0.1970     3.4530 oh         1 DDM      -0.676000
     12 HC2         -1.2850    -1.0680    -2.5850 h1         1 DDM       0.025700
     13 HC3          0.7230    -1.6770    -1.2950 h1         1 DDM       0.036700
     14 HC11        -1.6070    -1.9530    -0.2700 h1         1 DDM       0.034700
     15 HC12        -2.8790    -0.7780    -0.6640 h1         1 DDM       0.034700
     16 HC4          0.8140     1.2380    -0.3400 h1         1 DDM       0.073700
     17 HC5          0.2110    -1.3020     1.2660 h1         1 DDM       0.039700
     18 HC61         0.2660     1.6340     2.1290 h1         1 DDM       0.039700
     19 HC62         1.4200     0.3800     2.6080 h1         1 DDM       0.039700
     20 HO2         -1.5760     1.2890    -1.1140 ho         1 DDM       0.501000
     21 HO3          0.7400     0.5640    -2.9900 ho         1 DDM       0.446000
     22 HO4          2.7840    -0.1150    -0.7740 ho         1 DDM       0.522000
     23 HN5         -1.9560    -0.3570     1.5220 hn         1 DDM       0.437000
     24 HO6         -0.2320     0.7740     4.2100 ho         1 DDM       0.448000
@<TRIPOS>BOND
     1     1     2 1   
     2     1     3 1   
     3     1     7 1   
     4     1    12 1   
     5     2     4 1   
     6     2     8 1   
     7     2    13 1   
     8     3    10 1   
     9     3    14 1   
    10     3    15 1   
    11     4     5 1   
    12     4     9 1   
    13     4    16 1   
    14     5     6 1   
    15     5    10 1   
    16     5    17 1   
    17     6    11 1   
    18     6    18 1   
    19     6    19 1   
    20     7    20 1   
    21     8    21 1   
    22     9    22 1   
    23    10    23 1   
    24    11    24 1   
@<TRIPOS>SUBSTRUCTURE
     1 DDM         1 TEMP              0 ****  ****    0 ROOT
