@<TRIPOS>MOLECULE
DDO
   22    21     1     0     0
SMALL
abcg2


@<TRIPOS>ATOM
      1 N            1.8030     0.1390    -1.4300 n8         1 DDO      -1.001200
      2 CA           0.3820     0.4510    -1.4270 c3         1 DDO       0.013500
      3 CB          -0.2820    -0.1460    -0.1840 c3         1 DDO      -0.049400
      4 CG           0.2730     0.3880     1.1290 c3         1 DDO      -0.074400
      5 CD          -0.3930    -0.2400     2.3480 c3         1 DDO      -0.082400
      6 CE           0.1590     0.3150     3.6450 c3         1 DDO       0.158600
      7 OZ          -0.4870    -0.3080     4.7360 oh         1 DDO      -0.668000
      8 C           -0.3980     0.0030    -2.6890 c          1 DDO       0.692000
      9 O            0.1550    -0.8130    -3.4530 o          1 DDO      -0.735500
     10 OXT         -1.5420     0.4880    -2.8250 o          1 DDO      -0.735500
     11 HN1          1.9040    -0.8400    -1.6740 hn         1 DDO       0.380500
     12 HN2          2.2410     0.6330    -2.1980 hn         1 DDO       0.380500
     13 HA1          0.2850     1.5410    -1.3540 h1         1 DDO       0.035700
     14 HB1         -1.3560     0.0500    -0.2300 hc         1 DDO       0.038700
     15 HB2         -0.1710    -1.2380    -0.2090 hc         1 DDO       0.038700
     16 HG1          1.3510     0.2150     1.1660 hc         1 DDO       0.034700
     17 HG2          0.1380     1.4750     1.1590 hc         1 DDO       0.034700
     18 HD1         -1.4730    -0.0680     2.3080 hc         1 DDO       0.045700
     19 HD2         -0.2470    -1.3250     2.3250 hc         1 DDO       0.045700
     20 HE1          1.2450     0.1470     3.6760 h1         1 DDO       0.010700
     21 HE2          0.0110     1.4040     3.6630 h1         1 DDO       0.010700
     22 HOZ         -0.1310     0.0640     5.5480 ho         1 DDO       0.427000
@<TRIPOS>BOND
     1     1     2 1   
     2     1    11 1   
     3     1    12 1   
     4     2     3 1   
     5     2     8 1   
     6     2    13 1   
     7     3     4 1   
     8     3    14 1   
     9     3    15 1   
    10     4     5 1   
    11     4    16 1   
    12     4    17 1   
    13     5     6 1   
    14     5    18 1   
    15     5    19 1   
    16     6     7 1   
    17     6    20 1   
    18     6    21 1   
    19     7    22 1   
    20     8     9 1   
    21     8    10 1   
@<TRIPOS>SUBSTRUCTURE
     1 DDO         1 TEMP              0 ****  ****    0 ROOT
