@<TRIPOS>MOLECULE
DDO
   22    21     1     0     0
SMALL
No Charge or Current Charge


@<TRIPOS>ATOM
      1 N            1.8540     0.2100    -1.5430 n8         1 DDO      -1.001200
      2 CA           0.3650     0.4450    -1.4580 c3         1 DDO       0.013500
      3 CB          -0.2320    -0.2170    -0.1850 c3         1 DDO      -0.049400
      4 CG           0.2830     0.3740     1.1510 c3         1 DDO      -0.074400
      5 CD          -0.3780    -0.2670     2.3920 c3         1 DDO      -0.082400
      6 CE           0.1370     0.3240     3.7200 c3         1 DDO       0.158600
      7 OZ          -0.5170    -0.3140     4.8200 oh         1 DDO      -0.668000
      8 C           -0.4770     0.0310    -2.7360 c          1 DDO       0.692000
      9 O           -0.3070    -1.0850    -3.2100 o          1 DDO      -0.735500
     10 OXT         -1.1800     0.8810    -3.2670 o          1 DDO      -0.735500
     11 HN1          2.0100    -0.7780    -1.7790 hn         1 DDO       0.380500
     12 HN2          2.2240     0.7050    -2.3640 hn         1 DDO       0.380500
     13 HA1          0.2290     1.5300    -1.3460 h1         1 DDO       0.035700
     14 HB1         -1.3220    -0.0980    -0.2150 hc         1 DDO       0.038700
     15 HB2         -0.0370    -1.2970    -0.2090 hc         1 DDO       0.038700
     16 HG1          1.3700     0.2390     1.2180 hc         1 DDO       0.034700
     17 HG2          0.0940     1.4550     1.1620 hc         1 DDO       0.034700
     18 HD1         -1.4650    -0.1280     2.3340 hc         1 DDO       0.045700
     19 HD2         -0.1900    -1.3480     2.3820 hc         1 DDO       0.045700
     20 HE1          1.2230     0.1750     3.7870 h1         1 DDO       0.010700
     21 HE2         -0.0590     1.4040     3.7370 h1         1 DDO       0.010700
     22 HOZ         -0.1580     0.0930     5.6400 ho         1 DDO       0.427000
@<TRIPOS>BOND
     1     1     2 1   
     2     1    11 1   
     3     1    12 1   
     4     2     3 1   
     5     2     8 1   
     6     2    13 1   
     7     3     4 1   
     8     3    14 1   
     9     3    15 1   
    10     4     5 1   
    11     4    16 1   
    12     4    17 1   
    13     5     6 1   
    14     5    18 1   
    15     5    19 1   
    16     6     7 1   
    17     6    20 1   
    18     6    21 1   
    19     7    22 1   
    20     8     9 1   
    21     8    10 1   
@<TRIPOS>SUBSTRUCTURE
     1 DDO         1 TEMP              0 ****  ****    0 ROOT
