@<TRIPOS>MOLECULE
DDP
   16    16     1     0     0
SMALL
bcc


@<TRIPOS>ATOM
      1 C5         -15.2910    36.0600    39.5520 ca         1 DDP      -0.265000
      2 N7         -14.7380    36.2490    38.2620 nv         1 DDP      -0.747200
      3 C4         -14.4840    35.8970    40.6780 ca         1 DDP       0.724100
      4 N3         -14.9550    35.7160    41.9020 nb         1 DDP      -0.890000
      5 C2         -16.2790    35.6910    42.0380 ca         1 DDP       0.973900
      6 N2         -16.7710    35.4710    43.2730 nv         1 DDP      -0.945500
      7 N1         -17.1600    35.8350    41.0470 nb         1 DDP      -0.890000
      8 C6         -16.6570    36.0140    39.8380 ca         1 DDP       0.724100
      9 O6         -17.5080    36.1600    38.8290 oh         1 DDP      -0.587300
     10 O9         -13.1660    35.9240    40.5290 oh         1 DDP      -0.587300
     11 H71        -15.0150    37.1380    37.8650 hn         1 DDP       0.357300
     12 H72        -15.0480    35.5320    37.6190 hn         1 DDP       0.357300
     13 H21        -17.7470    35.6440    43.4400 hn         1 DDP       0.440800
     14 H22        -16.1530    35.5560    44.0610 hn         1 DDP       0.440800
     15 H61        -18.4110    36.1030    39.1710 ho         1 DDP       0.447500
     16 H91        -12.7570    35.7950    41.3960 ho         1 DDP       0.447500
@<TRIPOS>BOND
     1     1     2 1   
     2     1     3 ar  
     3     1     8 ar  
     4     2    11 1   
     5     2    12 1   
     6     3     4 ar  
     7     3    10 1   
     8     4     5 ar  
     9     5     6 1   
    10     5     7 ar  
    11     6    13 1   
    12     6    14 1   
    13     7     8 ar  
    14     8     9 1   
    15     9    15 1   
    16    10    16 1   
@<TRIPOS>SUBSTRUCTURE
     1 DDP         1 TEMP              0 ****  ****    0 ROOT
