@<TRIPOS>MOLECULE
DDP
   16    16     1     0     0
SMALL
No Charge or Current Charge


@<TRIPOS>ATOM
      1 C5         -15.3670    36.0680    39.5200 ca         1 DDP       0.004000
      2 N7         -14.8910    36.2810    38.2110 nv         1 DDP      -0.996000
      3 C4         -14.5060    36.0310    40.6560 ca         1 DDP       0.395800
      4 N3         -14.9580    35.8290    41.9020 nb         1 DDP      -0.364000
      5 C2         -16.2750    35.6610    42.0210 ca         1 DDP       0.447900
      6 N2         -16.7290    35.4590    43.2700 nv         1 DDP      -1.055900
      7 N1         -17.2000    35.6720    41.0620 nb         1 DDP      -0.364000
      8 C6         -16.7480    35.8740    39.8160 ca         1 DDP       0.395800
      9 O6         -17.6940    35.8830    38.8360 oh         1 DDP      -0.626300
     10 O9         -13.1590    36.2010    40.5340 oh         1 DDP      -0.626300
     11 H71        -13.8950    36.4170    38.0360 hn         1 DDP       0.412500
     12 H72        -15.5370    36.3020    37.4210 hn         1 DDP       0.412500
     13 H21        -17.7260    35.5660    43.4360 hn         1 DDP       0.496000
     14 H22        -16.1100    35.6790    44.0470 hn         1 DDP       0.496000
     15 H61        -18.5490    35.7290    39.2880 ho         1 DDP       0.486500
     16 H91        -12.7980    36.1320    41.4430 ho         1 DDP       0.486500
@<TRIPOS>BOND
     1     1     2 1   
     2     1     3 ar  
     3     1     8 ar  
     4     2    11 1   
     5     2    12 1   
     6     3     4 ar  
     7     3    10 1   
     8     4     5 ar  
     9     5     6 1   
    10     5     7 ar  
    11     6    13 1   
    12     6    14 1   
    13     7     8 ar  
    14     8     9 1   
    15     9    15 1   
    16    10    16 1   
@<TRIPOS>SUBSTRUCTURE
     1 DDP         1 TEMP              0 ****  ****    0 ROOT
