@<TRIPOS>MOLECULE
DDQ
   41    40     1     0     0
SMALL
No Charge or Current Charge


@<TRIPOS>ATOM
      1 N1          -4.9580    -0.0830    -0.0210 n4         1 DDQ      -0.122000
      2 O1          -5.0810    -0.8680    -1.1600 o          1 DDQ      -0.662000
      3 CM1         -5.1310    -0.9490     1.2310 c3         1 DDQ       0.072400
      4 CM2         -6.0480     0.9900    -0.0210 c3         1 DDQ       0.072400
      5 C1          -3.5880     0.6170     0.0100 c3         1 DDQ       0.096600
      6 C2          -2.3220    -0.2690     0.0030 c3         1 DDQ      -0.081400
      7 C3          -1.0230     0.5640     0.0090 c3         1 DDQ      -0.075400
      8 C4           0.2530    -0.3070     0.0020 c3         1 DDQ      -0.074400
      9 C5           1.5530     0.5270     0.0070 c3         1 DDQ      -0.074400
     10 C6           2.8290    -0.3430    -0.0000 c3         1 DDQ      -0.074400
     11 C7           4.1290     0.4910     0.0060 c3         1 DDQ      -0.074400
     12 C8           5.4050    -0.3790    -0.0020 c3         1 DDQ      -0.075400
     13 C9           6.7050     0.4550     0.0040 c3         1 DDQ      -0.074400
     14 C10          7.9790    -0.4130    -0.0040 c3         1 DDQ      -0.088100
     15 HM11        -5.0210    -0.3190     2.1150 hx         1 DDQ       0.062367
     16 HM12        -6.1260    -1.3990     1.2140 hx         1 DDQ       0.062367
     17 HM13        -4.3700    -1.7310     1.2310 hx         1 DDQ       0.062367
     18 HM21        -5.9300     1.6150    -0.9080 hx         1 DDQ       0.062367
     19 HM22        -7.0250     0.5030    -0.0340 hx         1 DDQ       0.062367
     20 HM23        -5.9460     1.5980     0.8800 hx         1 DDQ       0.062367
     21 H11         -3.5690     1.2410     0.9060 hx         1 DDQ       0.055700
     22 H12         -3.5500     1.2760    -0.8590 hx         1 DDQ       0.055700
     23 H21         -2.3390    -0.9110    -0.8850 hc         1 DDQ       0.065200
     24 H22         -2.3320    -0.9280     0.8790 hc         1 DDQ       0.065200
     25 H31         -1.0140     1.2100     0.8950 hc         1 DDQ       0.036700
     26 H32         -1.0150     1.2230    -0.8690 hc         1 DDQ       0.036700
     27 H41          0.2440    -0.9530    -0.8850 hc         1 DDQ       0.041200
     28 H42          0.2450    -0.9660     0.8790 hc         1 DDQ       0.041200
     29 H51          1.5630     1.1730     0.8940 hc         1 DDQ       0.036700
     30 H52          1.5620     1.1860    -0.8700 hc         1 DDQ       0.036700
     31 H61          2.8200    -0.9890    -0.8870 hc         1 DDQ       0.038200
     32 H62          2.8210    -1.0020     0.8770 hc         1 DDQ       0.038200
     33 H71          4.1390     1.1370     0.8930 hc         1 DDQ       0.036700
     34 H72          4.1380     1.1510    -0.8710 hc         1 DDQ       0.036700
     35 H81          5.3960    -1.0250    -0.8890 hc         1 DDQ       0.037200
     36 H82          5.3970    -1.0380     0.8750 hc         1 DDQ       0.037200
     37 H91          6.7190     1.1010     0.8910 hc         1 DDQ       0.036200
     38 H92          6.7180     1.1140    -0.8730 hc         1 DDQ       0.036200
     39 H101         8.0130    -1.0600     0.8810 hc         1 DDQ       0.031367
     40 H102         8.0120    -1.0460    -0.8980 hc         1 DDQ       0.031367
     41 H103         8.8730     0.2220     0.0010 hc         1 DDQ       0.031367
@<TRIPOS>BOND
     1     1     2 1   
     2     1     3 1   
     3     1     4 1   
     4     1     5 1   
     5     3    15 1   
     6     3    16 1   
     7     3    17 1   
     8     4    18 1   
     9     4    19 1   
    10     4    20 1   
    11     5     6 1   
    12     5    21 1   
    13     5    22 1   
    14     6     7 1   
    15     6    23 1   
    16     6    24 1   
    17     7     8 1   
    18     7    25 1   
    19     7    26 1   
    20     8     9 1   
    21     8    27 1   
    22     8    28 1   
    23     9    10 1   
    24     9    29 1   
    25     9    30 1   
    26    10    11 1   
    27    10    31 1   
    28    10    32 1   
    29    11    12 1   
    30    11    33 1   
    31    11    34 1   
    32    12    13 1   
    33    12    35 1   
    34    12    36 1   
    35    13    14 1   
    36    13    37 1   
    37    13    38 1   
    38    14    39 1   
    39    14    40 1   
    40    14    41 1   
@<TRIPOS>SUBSTRUCTURE
     1 DDQ         1 TEMP              0 ****  ****    0 ROOT
