@<TRIPOS>MOLECULE
DDQ
   41    40     1     0     0
SMALL
abcg2


@<TRIPOS>ATOM
      1 N1          -4.8260    -0.0790    -0.0160 n4         1 DDQ      -0.122000
      2 O1          -4.8740    -0.8380    -1.1350 o          1 DDQ      -0.662000
      3 CM1         -5.0410    -0.9270     1.1840 c3         1 DDQ       0.072400
      4 CM2         -5.9050     0.9420    -0.0590 c3         1 DDQ       0.072400
      5 C1          -3.5140     0.6450     0.0800 c3         1 DDQ       0.096600
      6 C2          -2.3000    -0.2620     0.0520 c3         1 DDQ      -0.081400
      7 C3          -1.0180     0.5650     0.0350 c3         1 DDQ      -0.075400
      8 C4           0.2380    -0.2970     0.0220 c3         1 DDQ      -0.074400
      9 C5           1.5220     0.5240     0.0100 c3         1 DDQ      -0.074400
     10 C6           2.7830    -0.3320     0.0020 c3         1 DDQ      -0.074400
     11 C7           4.0660     0.4890    -0.0040 c3         1 DDQ      -0.074400
     12 C8           5.3270    -0.3660    -0.0090 c3         1 DDQ      -0.075400
     13 C9           6.6130     0.4520    -0.0110 c3         1 DDQ      -0.074400
     14 C10          7.8630    -0.4180    -0.0170 c3         1 DDQ      -0.088100
     15 HM11        -4.9900    -0.3390     2.0990 hx         1 DDQ       0.062367
     16 HM12        -6.0260    -1.3810     1.1000 hx         1 DDQ       0.062367
     17 HM13        -4.2900    -1.7110     1.2070 hx         1 DDQ       0.062367
     18 HM21        -5.7610     1.5540    -0.9450 hx         1 DDQ       0.062367
     19 HM22        -6.8590     0.4260    -0.1220 hx         1 DDQ       0.062367
     20 HM23        -5.8860     1.5710     0.8290 hx         1 DDQ       0.062367
     21 H11         -3.5210     1.2500     0.9900 hx         1 DDQ       0.055700
     22 H12         -3.4890     1.3250    -0.7720 hx         1 DDQ       0.055700
     23 H21         -2.3460    -0.9000    -0.8320 hc         1 DDQ       0.065200
     24 H22         -2.2830    -0.9180     0.9260 hc         1 DDQ       0.065200
     25 H31         -0.9940     1.2250     0.9090 hc         1 DDQ       0.036700
     26 H32         -1.0160     1.2210    -0.8420 hc         1 DDQ       0.036700
     27 H41          0.2170    -0.9560    -0.8530 hc         1 DDQ       0.041200
     28 H42          0.2360    -0.9550     0.8980 hc         1 DDQ       0.041200
     29 H51          1.5380     1.1840     0.8840 hc         1 DDQ       0.036700
     30 H52          1.5240     1.1820    -0.8660 hc         1 DDQ       0.036700
     31 H61          2.7690    -0.9910    -0.8730 hc         1 DDQ       0.038200
     32 H62          2.7780    -0.9920     0.8770 hc         1 DDQ       0.038200
     33 H71          4.0790     1.1490     0.8710 hc         1 DDQ       0.036700
     34 H72          4.0710     1.1490    -0.8800 hc         1 DDQ       0.036700
     35 H81          5.3160    -1.0250    -0.8850 hc         1 DDQ       0.037200
     36 H82          5.3210    -1.0270     0.8660 hc         1 DDQ       0.037200
     37 H91          6.6260     1.1070     0.8660 hc         1 DDQ       0.036200
     38 H92          6.6210     1.1130    -0.8830 hc         1 DDQ       0.036200
     39 H101         7.8940    -1.0660     0.8610 hc         1 DDQ       0.031367
     40 H102         7.8900    -1.0590    -0.9000 hc         1 DDQ       0.031367
     41 H103         8.7730     0.1820    -0.0170 hc         1 DDQ       0.031367
@<TRIPOS>BOND
     1     1     2 1   
     2     1     3 1   
     3     1     4 1   
     4     1     5 1   
     5     3    15 1   
     6     3    16 1   
     7     3    17 1   
     8     4    18 1   
     9     4    19 1   
    10     4    20 1   
    11     5     6 1   
    12     5    21 1   
    13     5    22 1   
    14     6     7 1   
    15     6    23 1   
    16     6    24 1   
    17     7     8 1   
    18     7    25 1   
    19     7    26 1   
    20     8     9 1   
    21     8    27 1   
    22     8    28 1   
    23     9    10 1   
    24     9    29 1   
    25     9    30 1   
    26    10    11 1   
    27    10    31 1   
    28    10    32 1   
    29    11    12 1   
    30    11    33 1   
    31    11    34 1   
    32    12    13 1   
    33    12    35 1   
    34    12    36 1   
    35    13    14 1   
    36    13    37 1   
    37    13    38 1   
    38    14    39 1   
    39    14    40 1   
    40    14    41 1   
@<TRIPOS>SUBSTRUCTURE
     1 DDQ         1 TEMP              0 ****  ****    0 ROOT
