@<TRIPOS>MOLECULE
DDR
   72    71     1     0     0
SMALL
abcg2


@<TRIPOS>ATOM
      1 O21         -3.3130    -3.3330    -0.1410 o          1 DDR      -0.498000
      2 C21         -2.7110    -2.2960    -0.0130 c          1 DDR       0.594100
      3 C22         -3.3470    -0.9350     0.0780 c3         1 DDR      -0.136400
      4 C23         -4.8530    -0.9600    -0.1260 c3         1 DDR      -0.069400
      5 C24         -5.4880     0.4120     0.0640 c3         1 DDR      -0.075400
      6 C25         -6.9960     0.3870    -0.1470 c3         1 DDR      -0.074400
      7 C26         -7.6680     1.7340     0.0890 c3         1 DDR      -0.074400
      8 C27         -9.1750     1.6940    -0.1350 c3         1 DDR      -0.075400
      9 C28         -9.8630     3.0260     0.1310 c3         1 DDR      -0.075400
     10 C29        -11.3680     2.9830    -0.1080 c3         1 DDR      -0.075400
     11 C30        -12.0510     4.3130     0.1770 c3         1 DDR      -0.088100
     12 O52         -1.3860    -2.2240     0.0870 os         1 DDR      -0.428100
     13 C52         -0.6260    -3.4380     0.0960 c3         1 DDR       0.175300
     14 C53         -0.3860    -3.9570    -1.3120 c3         1 DDR       0.145600
     15 O53          0.1630    -2.9570    -2.1290 oh         1 DDR      -0.635000
     16 C51          0.6120    -3.1900     0.9260 c3         1 DDR       0.168600
     17 O51          1.4310    -2.2020     0.3080 os         1 DDR      -0.416100
     18 C1           2.5960    -1.9300     0.8860 c          1 DDR       0.591100
     19 O1           2.9590    -2.4450     1.9140 o          1 DDR      -0.497000
     20 C2           3.3890    -0.9260     0.0930 c3         1 DDR      -0.136400
     21 C3           4.7260    -0.5780     0.7290 c3         1 DDR      -0.069400
     22 C4           5.5610     0.3520    -0.1410 c3         1 DDR      -0.075400
     23 C5           6.8960     0.7020     0.5040 c3         1 DDR      -0.075400
     24 C6           7.7850     1.5820    -0.3650 c3         1 DDR      -0.073400
     25 C7           9.1120     1.9260     0.3010 c3         1 DDR      -0.075400
     26 C8          10.0210     2.7890    -0.5640 c3         1 DDR      -0.075400
     27 C9          11.3450     3.1290     0.1110 c3         1 DDR      -0.075400
     28 C10         12.2500     3.9900    -0.7590 c3         1 DDR      -0.088100
     29 H221        -3.1000    -0.5170     1.0590 hc         1 DDR       0.074200
     30 H222        -2.8660    -0.2750    -0.6500 hc         1 DDR       0.074200
     31 H231        -5.0830    -1.3320    -1.1280 hc         1 DDR       0.053200
     32 H232        -5.3090    -1.6630     0.5760 hc         1 DDR       0.053200
     33 H241        -5.2680     0.7800     1.0730 hc         1 DDR       0.038200
     34 H242        -5.0340     1.1310    -0.6260 hc         1 DDR       0.038200
     35 H251        -7.2110     0.0460    -1.1660 hc         1 DDR       0.039700
     36 H252        -7.4410    -0.3590     0.5200 hc         1 DDR       0.039700
     37 H261        -7.4630     2.0670     1.1130 hc         1 DDR       0.037200
     38 H262        -7.2220     2.4870    -0.5690 hc         1 DDR       0.037200
     39 H271        -9.3770     1.3770    -1.1640 hc         1 DDR       0.037700
     40 H272        -9.6160     0.9240     0.5090 hc         1 DDR       0.037700
     41 H281        -9.6710     3.3350     1.1650 hc         1 DDR       0.036700
     42 H282        -9.4170     3.8010    -0.5020 hc         1 DDR       0.036700
     43 H291       -11.5590     2.6860    -1.1440 hc         1 DDR       0.036700
     44 H292       -11.8100     2.2010     0.5160 hc         1 DDR       0.036700
     45 H301       -11.9130     4.6120     1.2180 hc         1 DDR       0.031367
     46 H302       -11.6420     5.1090    -0.4490 hc         1 DDR       0.031367
     47 H303       -13.1240     4.2630    -0.0120 hc         1 DDR       0.031367
     48 H52         -1.1770    -4.2220     0.6270 h1         1 DDR       0.070700
     49 H531         0.2700    -4.8350    -1.2230 h1         1 DDR       0.031200
     50 H532        -1.3380    -4.3220    -1.7100 h1         1 DDR       0.031200
     51 HO53         0.1260    -3.2710    -3.0370 ho         1 DDR       0.440000
     52 H511         0.3210    -2.8720     1.9300 h1         1 DDR       0.057200
     53 H512         1.1530    -4.1340     1.0200 h1         1 DDR       0.057200
     54 H21          3.5360    -1.3330    -0.9120 hc         1 DDR       0.074200
     55 H22          2.7790    -0.0280    -0.0430 hc         1 DDR       0.074200
     56 H31          4.5590    -0.1120     1.7040 hc         1 DDR       0.053200
     57 H32          5.2930    -1.4930     0.9190 hc         1 DDR       0.053200
     58 H41          5.7400    -0.1220    -1.1130 hc         1 DDR       0.038200
     59 H42          5.0030     1.2710    -0.3500 hc         1 DDR       0.038200
     60 H51          6.7130     1.2040     1.4610 hc         1 DDR       0.039700
     61 H52A         7.4310    -0.2220     0.7480 hc         1 DDR       0.039700
     62 H61          7.9770     1.0750    -1.3180 hc         1 DDR       0.037200
     63 H62          7.2530     2.5060    -0.6170 hc         1 DDR       0.037200
     64 H71          8.9170     2.4390     1.2490 hc         1 DDR       0.037700
     65 H72          9.6350     0.9990     0.5640 hc         1 DDR       0.037700
     66 H81         10.2200     2.2740    -1.5100 hc         1 DDR       0.036700
     67 H82          9.5010     3.7160    -0.8290 hc         1 DDR       0.036700
     68 H91         11.1460     3.6440     1.0560 hc         1 DDR       0.036700
     69 H92         11.8630     2.2020     0.3770 hc         1 DDR       0.036700
     70 H101        12.4930     3.4850    -1.6960 hc         1 DDR       0.031367
     71 H102        11.7680     4.9360    -1.0130 hc         1 DDR       0.031367
     72 H103        13.1900     4.2220    -0.2560 hc         1 DDR       0.031367
@<TRIPOS>BOND
     1     1     2 2   
     2     2     3 1   
     3     2    12 1   
     4     3     4 1   
     5     3    29 1   
     6     3    30 1   
     7     4     5 1   
     8     4    31 1   
     9     4    32 1   
    10     5     6 1   
    11     5    33 1   
    12     5    34 1   
    13     6     7 1   
    14     6    35 1   
    15     6    36 1   
    16     7     8 1   
    17     7    37 1   
    18     7    38 1   
    19     8     9 1   
    20     8    39 1   
    21     8    40 1   
    22     9    10 1   
    23     9    41 1   
    24     9    42 1   
    25    10    11 1   
    26    10    43 1   
    27    10    44 1   
    28    11    45 1   
    29    11    46 1   
    30    11    47 1   
    31    12    13 1   
    32    13    14 1   
    33    13    16 1   
    34    13    48 1   
    35    14    15 1   
    36    14    49 1   
    37    14    50 1   
    38    15    51 1   
    39    16    17 1   
    40    16    52 1   
    41    16    53 1   
    42    17    18 1   
    43    18    19 2   
    44    18    20 1   
    45    20    21 1   
    46    20    54 1   
    47    20    55 1   
    48    21    22 1   
    49    21    56 1   
    50    21    57 1   
    51    22    23 1   
    52    22    58 1   
    53    22    59 1   
    54    23    24 1   
    55    23    60 1   
    56    23    61 1   
    57    24    25 1   
    58    24    62 1   
    59    24    63 1   
    60    25    26 1   
    61    25    64 1   
    62    25    65 1   
    63    26    27 1   
    64    26    66 1   
    65    26    67 1   
    66    27    28 1   
    67    27    68 1   
    68    27    69 1   
    69    28    70 1   
    70    28    71 1   
    71    28    72 1   
@<TRIPOS>SUBSTRUCTURE
     1 DDR         1 TEMP              0 ****  ****    0 ROOT
