@<TRIPOS>MOLECULE
DDR
   72    71     1     0     0
SMALL
No Charge or Current Charge


@<TRIPOS>ATOM
      1 O21         -2.4880    -3.5070    -1.9110 o          1 DDR      -0.498000
      2 C21         -2.2800    -2.4180    -1.3930 c          1 DDR       0.594100
      3 C22         -3.0870    -1.1600    -1.7170 c3         1 DDR      -0.136400
      4 C23         -4.3800    -1.0870    -0.8700 c3         1 DDR      -0.069400
      5 C24         -5.2210     0.1760    -1.1590 c3         1 DDR      -0.075400
      6 C25         -6.5110     0.2490    -0.3130 c3         1 DDR      -0.074400
      7 C26         -7.3520     1.5120    -0.6010 c3         1 DDR      -0.074400
      8 C27         -8.6420     1.5840     0.2450 c3         1 DDR      -0.075400
      9 C28         -9.4830     2.8480    -0.0420 c3         1 DDR      -0.075400
     10 C29        -10.7730     2.9210     0.8030 c3         1 DDR      -0.075400
     11 C30        -11.6110     4.1810     0.5170 c3         1 DDR      -0.088100
     12 O52         -1.3280    -2.1750    -0.4370 os         1 DDR      -0.428100
     13 C52         -0.4250    -3.2440    -0.0500 c3         1 DDR       0.175300
     14 C53          0.5660    -3.5900    -1.2130 c3         1 DDR       0.145600
     15 O53          1.0970    -2.4230    -1.8730 oh         1 DDR      -0.635000
     16 C51          0.2670    -2.8350     1.2790 c3         1 DDR       0.168600
     17 O51          1.0790    -1.6580     1.0810 os         1 DDR      -0.416100
     18 C1           1.7640    -1.1600     2.1550 c          1 DDR       0.591100
     19 O1           1.7410    -1.6460     3.2780 o          1 DDR      -0.497000
     20 C2           2.5800     0.0800     1.7830 c3         1 DDR      -0.136400
     21 C3           4.0390    -0.2930     1.4270 c3         1 DDR      -0.069400
     22 C4           4.8960     0.9300     1.0360 c3         1 DDR      -0.075400
     23 C5           6.3530     0.5580     0.6810 c3         1 DDR      -0.075400
     24 C6           7.2110     1.7810     0.2890 c3         1 DDR      -0.073400
     25 C7           8.6670     1.4090    -0.0650 c3         1 DDR      -0.075400
     26 C8           9.5250     2.6320    -0.4570 c3         1 DDR      -0.075400
     27 C9          10.9810     2.2600    -0.8110 c3         1 DDR      -0.075400
     28 C10         11.8380     3.4800    -1.2020 c3         1 DDR      -0.088100
     29 H221        -2.4840    -0.2760    -1.4770 hc         1 DDR       0.074200
     30 H222        -3.3540    -1.1680    -2.7800 hc         1 DDR       0.074200
     31 H231        -4.9890    -1.9790    -1.0650 hc         1 DDR       0.053200
     32 H232        -4.1140    -1.1080     0.1950 hc         1 DDR       0.053200
     33 H241        -4.6120     1.0670    -0.9630 hc         1 DDR       0.038200
     34 H242        -5.4860     0.1960    -2.2230 hc         1 DDR       0.038200
     35 H251        -7.1210    -0.6420    -0.5080 hc         1 DDR       0.039700
     36 H252        -6.2450     0.2280     0.7520 hc         1 DDR       0.039700
     37 H261        -6.7420     2.4030    -0.4050 hc         1 DDR       0.037200
     38 H262        -7.6170     1.5320    -1.6650 hc         1 DDR       0.037200
     39 H271        -9.2520     0.6940     0.0490 hc         1 DDR       0.037700
     40 H272        -8.3760     1.5630     1.3100 hc         1 DDR       0.037700
     41 H281        -8.8730     3.7390     0.1530 hc         1 DDR       0.036700
     42 H282        -9.7480     2.8690    -1.1070 hc         1 DDR       0.036700
     43 H291       -11.3860     2.0330     0.6080 hc         1 DDR       0.036700
     44 H292       -10.5110     2.9020     1.8690 hc         1 DDR       0.036700
     45 H301       -11.0360     5.0890     0.7360 hc         1 DDR       0.031367
     46 H302       -11.9190     4.2120    -0.5350 hc         1 DDR       0.031367
     47 H303       -12.5140     4.1890     1.1390 hc         1 DDR       0.031367
     48 H52         -1.0000    -4.1520     0.1730 h1         1 DDR       0.070700
     49 H531         1.3850    -4.1980    -0.8050 h1         1 DDR       0.031200
     50 H532         0.0430    -4.2190    -1.9440 h1         1 DDR       0.031200
     51 HO53         1.7170    -2.7400    -2.5660 ho         1 DDR       0.440000
     52 H511        -0.5050    -2.6480     2.0370 h1         1 DDR       0.057200
     53 H512         0.8850    -3.6730     1.6290 h1         1 DDR       0.057200
     54 H21          2.1340     0.5490     0.8980 hc         1 DDR       0.074200
     55 H22          2.5830     0.7760     2.6300 hc         1 DDR       0.074200
     56 H31          4.5010    -0.7990     2.2850 hc         1 DDR       0.053200
     57 H32          4.0340    -1.0120     0.5970 hc         1 DDR       0.053200
     58 H41          4.4350     1.4350     0.1780 hc         1 DDR       0.038200
     59 H42          4.9000     1.6480     1.8660 hc         1 DDR       0.038200
     60 H51          6.8150     0.0540     1.5390 hc         1 DDR       0.039700
     61 H52A         6.3490    -0.1600    -0.1490 hc         1 DDR       0.039700
     62 H61          6.7490     2.2850    -0.5690 hc         1 DDR       0.037200
     63 H62          7.2140     2.4990     1.1190 hc         1 DDR       0.037200
     64 H71          9.1290     0.9050     0.7930 hc         1 DDR       0.037700
     65 H72          8.6630     0.6910    -0.8950 hc         1 DDR       0.037700
     66 H81          9.0630     3.1360    -1.3150 hc         1 DDR       0.036700
     67 H82          9.5290     3.3500     0.3730 hc         1 DDR       0.036700
     68 H91         11.4470     1.7570     0.0450 hc         1 DDR       0.036700
     69 H92         10.9820     1.5440    -1.6420 hc         1 DDR       0.036700
     70 H101        11.4170     3.9850    -2.0790 hc         1 DDR       0.031367
     71 H102        11.8860     4.2010    -0.3770 hc         1 DDR       0.031367
     72 H103        12.8610     3.1670    -1.4440 hc         1 DDR       0.031367
@<TRIPOS>BOND
     1     1     2 2   
     2     2     3 1   
     3     2    12 1   
     4     3     4 1   
     5     3    29 1   
     6     3    30 1   
     7     4     5 1   
     8     4    31 1   
     9     4    32 1   
    10     5     6 1   
    11     5    33 1   
    12     5    34 1   
    13     6     7 1   
    14     6    35 1   
    15     6    36 1   
    16     7     8 1   
    17     7    37 1   
    18     7    38 1   
    19     8     9 1   
    20     8    39 1   
    21     8    40 1   
    22     9    10 1   
    23     9    41 1   
    24     9    42 1   
    25    10    11 1   
    26    10    43 1   
    27    10    44 1   
    28    11    45 1   
    29    11    46 1   
    30    11    47 1   
    31    12    13 1   
    32    13    14 1   
    33    13    16 1   
    34    13    48 1   
    35    14    15 1   
    36    14    49 1   
    37    14    50 1   
    38    15    51 1   
    39    16    17 1   
    40    16    52 1   
    41    16    53 1   
    42    17    18 1   
    43    18    19 2   
    44    18    20 1   
    45    20    21 1   
    46    20    54 1   
    47    20    55 1   
    48    21    22 1   
    49    21    56 1   
    50    21    57 1   
    51    22    23 1   
    52    22    58 1   
    53    22    59 1   
    54    23    24 1   
    55    23    60 1   
    56    23    61 1   
    57    24    25 1   
    58    24    62 1   
    59    24    63 1   
    60    25    26 1   
    61    25    64 1   
    62    25    65 1   
    63    26    27 1   
    64    26    66 1   
    65    26    67 1   
    66    27    28 1   
    67    27    68 1   
    68    27    69 1   
    69    28    70 1   
    70    28    71 1   
    71    28    72 1   
@<TRIPOS>SUBSTRUCTURE
     1 DDR         1 TEMP              0 ****  ****    0 ROOT
