@<TRIPOS>MOLECULE
DDT
   77    81     1     0     0
SMALL
No Charge or Current Charge


@<TRIPOS>ATOM
      1 C1           1.7350    -0.9280     3.4340 ca         1 DDT       0.265000
      2 C2           2.2210     0.3040     3.8970 ca         1 DDT      -0.161000
      3 C3           1.3370     1.3280     4.2410 ca         1 DDT      -0.072000
      4 C4          -0.0450     1.1340     4.1270 ca         1 DDT      -0.097000
      5 C4A         -0.5880    -0.0920     3.6600 ca         1 DDT       0.068000
      6 C5          -1.9970    -0.3240     3.5090 ca         1 DDT      -0.273500
      7 C6          -2.4350    -1.5620     2.9880 ca         1 DDT      -0.002000
      8 C7          -1.5270    -2.5660     2.6450 ca         1 DDT      -0.151000
      9 C8          -0.1570    -2.3550     2.8040 ca         1 DDT      -0.043000
     10 C8A          0.3310    -1.1290     3.3090 ca         1 DDT      -0.057000
     11 C9           3.7420    -1.6690     2.1150 c3         1 DDT       0.175100
     12 C10          2.8640    -3.0960     3.9980 c3         1 DDT       0.175100
     13 N1           2.6820    -1.9300     3.1090 nh         1 DDT      -0.776400
     14 C11         -2.5130     2.5320     1.8610 c3         1 DDT       0.054500
     15 C12         -2.8750     4.0240     2.2010 c          1 DDT       0.711000
     16 C13         -2.3040     2.3360     0.3420 c3         1 DDT      -0.019100
     17 C14         -1.6680     0.9850     0.0210 ca         1 DDT      -0.038300
     18 C15         -2.4390    -0.0590    -0.5270 ca         1 DDT      -0.091500
     19 C16         -1.8520    -1.3060    -0.8050 ca         1 DDT      -0.100500
     20 C17         -0.4840    -1.5130    -0.5440 ca         1 DDT       0.084100
     21 C18          0.2820    -0.4820     0.0230 ca         1 DDT      -0.100500
     22 C19         -0.3050     0.7640     0.3000 ca         1 DDT      -0.091500
     23 S           -3.3340     0.8650     3.8600 sy         1 DDT       1.134600
     24 O1          -4.5820     0.1280     4.0770 o          1 DDT      -0.564000
     25 O2          -2.9320     1.9470     4.7600 o          1 DDT      -0.564000
     26 N           -3.5360     1.5520     2.3550 n7         1 DDT      -0.845300
     27 OC1         -1.9640     4.8190     2.3910 o          1 DDT      -0.706500
     28 OC2         -4.0600     4.3060     2.3430 o          1 DDT      -0.706500
     29 O            0.1240    -2.7130    -0.8320 os         1 DDT      -0.428800
     30 S1           0.1570    -3.2880    -2.4440 sy         1 DDT       1.275200
     31 O3           1.3770    -4.0960    -2.5880 o          1 DDT      -0.544500
     32 O4          -1.1680    -3.8550    -2.7390 o          1 DDT      -0.544500
     33 C20          2.6180     1.2900    -3.6390 ca         1 DDT       0.276000
     34 C21          3.6780     0.9140    -2.8000 ca         1 DDT      -0.168000
     35 C22          3.6560    -0.3150    -2.1330 ca         1 DDT      -0.070000
     36 C23          2.5700    -1.1840    -2.2990 ca         1 DDT      -0.124000
     37 C4X          1.4830    -0.8450    -3.1430 ca         1 DDT       0.064000
     38 C24          0.3550    -1.7030    -3.3170 ca         1 DDT      -0.296500
     39 C25         -0.6990    -1.3060    -4.1680 ca         1 DDT       0.014000
     40 C26         -0.6450    -0.0840    -4.8450 ca         1 DDT      -0.152000
     41 C27          0.4520     0.7670    -4.6760 ca         1 DDT      -0.029000
     42 C8X          1.5180     0.4080    -3.8200 ca         1 DDT      -0.065000
     43 C28          1.8330     3.6670    -3.7650 c3         1 DDT       0.170100
     44 CA           3.8400     2.9280    -5.0970 c3         1 DDT       0.170100
     45 HC2          3.2910     0.4630     3.9990 ha         1 DDT       0.103000
     46 HC3          1.7250     2.2800     4.6000 ha         1 DDT       0.111000
     47 HC4         -0.6600     1.9770     4.3990 ha         1 DDT       0.135000
     48 HC6         -3.4950    -1.7530     2.8300 ha         1 DDT       0.138000
     49 HC7         -1.8880    -3.5080     2.2380 ha         1 DDT       0.106000
     50 HC8          0.5220    -3.1480     2.5050 ha         1 DDT       0.118000
     51 HC91         3.8660    -2.5380     1.4520 h1         1 DDT       0.029867
     52 HC92         3.4800    -0.8020     1.4920 h1         1 DDT       0.029867
     53 HC93         4.6990    -1.4620     2.6160 h1         1 DDT       0.029867
     54 H101         2.0240    -3.1800     4.7020 h1         1 DDT       0.029867
     55 H102         2.9100    -4.0220     3.4100 h1         1 DDT       0.029867
     56 H103         3.7920    -2.9940     4.5780 h1         1 DDT       0.029867
     57 HC11        -1.5430     2.3370     2.3310 h1         1 DDT       0.046700
     58 H131        -3.2620     2.4560    -0.1800 hc         1 DDT       0.061200
     59 H132        -1.6520     3.1370    -0.0320 hc         1 DDT       0.061200
     60 HC15        -3.4970     0.0930    -0.7290 ha         1 DDT       0.119500
     61 HC16        -2.4620    -2.1050    -1.2180 ha         1 DDT       0.119500
     62 HC18         1.3330    -0.6460     0.2450 ha         1 DDT       0.119500
     63 HC19         0.2990     1.5550     0.7370 ha         1 DDT       0.119500
     64 H           -4.3960     2.0780     2.5160 hn         1 DDT       0.517000
     65 H2'1         4.5180     1.5870    -2.6520 ha         1 DDT       0.112000
     66 H3'1         4.4800    -0.5920    -1.4780 ha         1 DDT       0.115000
     67 H4'1         2.6010    -2.1150    -1.7450 ha         1 DDT       0.144000
     68 H6'1        -1.5740    -1.9390    -4.3130 ha         1 DDT       0.144000
     69 H7'1        -1.4600     0.2090    -5.5020 ha         1 DDT       0.117000
     70 H8'1         0.4640     1.7080    -5.2190 ha         1 DDT       0.126000
     71 H9'1         1.3410     4.1790    -4.6040 h1         1 DDT       0.035367
     72 H9'2         1.0510     3.2850    -3.0950 h1         1 DDT       0.035367
     73 H9'3         2.4370     4.3960    -3.2080 h1         1 DDT       0.035367
     74 HB1          3.5320     3.6030    -5.9080 h1         1 DDT       0.035367
     75 HB2          4.6080     3.4300    -4.4930 h1         1 DDT       0.035367
     76 HB3          4.2830     2.0320    -5.5540 h1         1 DDT       0.035367
     77 N2           2.6800     2.5620    -4.2610 nh         1 DDT      -0.777400
@<TRIPOS>BOND
     1     1     2 ar  
     2     1    10 ar  
     3     1    13 1   
     4     2     3 ar  
     5     2    45 1   
     6     3     4 ar  
     7     3    46 1   
     8     4     5 ar  
     9     4    47 1   
    10     5     6 ar  
    11     5    10 ar  
    12     6     7 ar  
    13     6    23 1   
    14     7     8 ar  
    15     7    48 1   
    16     8     9 ar  
    17     8    49 1   
    18     9    10 ar  
    19     9    50 1   
    20    11    13 1   
    21    11    51 1   
    22    11    52 1   
    23    11    53 1   
    24    12    13 1   
    25    12    54 1   
    26    12    55 1   
    27    12    56 1   
    28    14    15 1   
    29    14    16 1   
    30    14    26 1   
    31    14    57 1   
    32    15    27 1   
    33    15    28 1   
    34    16    17 1   
    35    16    58 1   
    36    16    59 1   
    37    17    18 ar  
    38    17    22 ar  
    39    18    19 ar  
    40    18    60 1   
    41    19    20 ar  
    42    19    61 1   
    43    20    21 ar  
    44    20    29 1   
    45    21    22 ar  
    46    21    62 1   
    47    22    63 1   
    48    23    24 2   
    49    23    25 2   
    50    23    26 1   
    51    26    64 1   
    52    29    30 1   
    53    30    31 2   
    54    30    32 2   
    55    30    38 1   
    56    33    34 ar  
    57    33    42 ar  
    58    33    77 1   
    59    34    35 ar  
    60    34    65 1   
    61    35    36 ar  
    62    35    66 1   
    63    36    37 ar  
    64    36    67 1   
    65    37    38 ar  
    66    37    42 ar  
    67    38    39 ar  
    68    39    40 ar  
    69    39    68 1   
    70    40    41 ar  
    71    40    69 1   
    72    41    42 ar  
    73    41    70 1   
    74    43    71 1   
    75    43    72 1   
    76    43    73 1   
    77    43    77 1   
    78    44    74 1   
    79    44    75 1   
    80    44    76 1   
    81    44    77 1   
@<TRIPOS>SUBSTRUCTURE
     1 DDT         1 TEMP              0 ****  ****    0 ROOT
