@<TRIPOS>MOLECULE
DDT
   77    81     1     0     0
SMALL
abcg2


@<TRIPOS>ATOM
      1 C1           1.3350    -0.2440     7.2240 ca         1 DDT       0.265000
      2 C2           0.1260    -0.0100     7.8330 ca         1 DDT      -0.161000
      3 C3          -1.0620    -0.0060     7.0850 ca         1 DDT      -0.072000
      4 C4          -1.0640    -0.2540     5.7420 ca         1 DDT      -0.097000
      5 C4A          0.1570    -0.4690     5.0580 ca         1 DDT       0.068000
      6 C5           0.2600    -0.6940     3.6520 ca         1 DDT      -0.273500
      7 C6           1.4750    -0.8150     3.0300 ca         1 DDT      -0.002000
      8 C7           2.6620    -0.7050     3.7720 ca         1 DDT      -0.151000
      9 C8           2.6070    -0.5120     5.1220 ca         1 DDT      -0.043000
     10 C8A          1.3710    -0.4240     5.8020 ca         1 DDT      -0.057000
     11 C9           2.5880     0.4320     9.1850 c3         1 DDT       0.175100
     12 C10          3.1360    -1.6110     8.0580 c3         1 DDT       0.175100
     13 N1           2.5460    -0.2850     7.9290 nh         1 DDT      -0.776400
     14 C11         -1.0560     1.8290     2.0210 c3         1 DDT       0.054500
     15 C12         -0.9920     2.9470     3.0980 c          1 DDT       0.711000
     16 C13         -1.6900     2.3810     0.7370 c3         1 DDT      -0.019100
     17 C14         -1.8050     1.3510    -0.3450 ca         1 DDT      -0.038300
     18 C15         -2.9500     0.5690    -0.4680 ca         1 DDT      -0.091500
     19 C16         -3.0490    -0.4150    -1.4380 ca         1 DDT      -0.100500
     20 C17         -1.9780    -0.6230    -2.2890 ca         1 DDT       0.084100
     21 C18         -0.8250     0.1380    -2.1960 ca         1 DDT      -0.100500
     22 C19         -0.7490     1.1210    -1.2220 ca         1 DDT      -0.091500
     23 S           -1.1830    -0.7870     2.6040 sy         1 DDT       1.134600
     24 O1          -0.7170    -1.1300     1.2720 o          1 DDT      -0.564000
     25 O2          -2.1720    -1.6490     3.2380 o          1 DDT      -0.564000
     26 N           -1.8340     0.7120     2.5480 n7         1 DDT      -0.845300
     27 OC1         -0.2810     3.9250     2.8180 o          1 DDT      -0.706500
     28 OC2         -1.6760     2.7670     4.1240 o          1 DDT      -0.706500
     29 O           -2.0420    -1.6460    -3.2300 os         1 DDT      -0.428800
     30 S1          -2.7130    -1.3310    -4.6750 sy         1 DDT       1.275200
     31 O3          -2.7640    -2.6290    -5.3060 o          1 DDT      -0.544500
     32 O4          -3.9350    -0.5860    -4.4700 o          1 DDT      -0.544500
     33 C20          2.0830    -0.1490    -6.4940 ca         1 DDT       0.276000
     34 C21          2.4880    -1.4320    -6.2120 ca         1 DDT      -0.168000
     35 C22          1.5890    -2.3610    -5.6660 ca         1 DDT      -0.070000
     36 C23          0.2940    -2.0280    -5.3810 ca         1 DDT      -0.124000
     37 C4X         -0.1830    -0.7330    -5.6880 ca         1 DDT       0.064000
     38 C24         -1.5180    -0.2860    -5.4490 ca         1 DDT      -0.296500
     39 C25         -1.9480     0.9640    -5.8080 ca         1 DDT       0.014000
     40 C26         -1.0720     1.8390    -6.4660 ca         1 DDT      -0.152000
     41 C27          0.2210     1.4630    -6.6960 ca         1 DDT      -0.029000
     42 C8X          0.7110     0.2040    -6.2810 ca         1 DDT      -0.065000
     43 C28          3.3110     1.8720    -6.0490 c3         1 DDT       0.170100
     44 CA           4.1170     0.3410    -7.7100 c3         1 DDT       0.170100
     45 HC2          0.0690     0.1470     8.9020 ha         1 DDT       0.103000
     46 HC3         -2.0010     0.1720     7.5940 ha         1 DDT       0.111000
     47 HC4         -2.0100    -0.2890     5.2260 ha         1 DDT       0.135000
     48 HC6          1.5330    -0.9780     1.9640 ha         1 DDT       0.138000
     49 HC7          3.6140    -0.7630     3.2630 ha         1 DDT       0.106000
     50 HC8          3.5230    -0.3960     5.6850 ha         1 DDT       0.118000
     51 HC91         3.6240     0.4970     9.5170 h1         1 DDT       0.029867
     52 HC92         2.2120     1.4460     9.0580 h1         1 DDT       0.029867
     53 HC93         2.0170    -0.0500     9.9900 h1         1 DDT       0.029867
     54 H101         3.0990    -2.1570     7.1180 h1         1 DDT       0.029867
     55 H102         4.1830    -1.5180     8.3490 h1         1 DDT       0.029867
     56 H103         2.6240    -2.2160     8.8180 h1         1 DDT       0.029867
     57 HC11        -0.0300     1.5180     1.7940 h1         1 DDT       0.046700
     58 H131        -2.6800     2.7780     0.9770 hc         1 DDT       0.061200
     59 H132        -1.0810     3.2190     0.3960 hc         1 DDT       0.061200
     60 HC15        -3.7800     0.7310     0.2080 ha         1 DDT       0.119500
     61 HC16        -3.9410    -1.0220    -1.5170 ha         1 DDT       0.119500
     62 HC18         0.0070    -0.0380    -2.8660 ha         1 DDT       0.119500
     63 HC19         0.1520     1.7180    -1.1480 ha         1 DDT       0.119500
     64 H           -2.2380     1.0070     3.4420 hn         1 DDT       0.517000
     65 H2'1         3.5120    -1.7370    -6.3810 ha         1 DDT       0.112000
     66 H3'1         1.9410    -3.3600    -5.4400 ha         1 DDT       0.115000
     67 H4'1        -0.3440    -2.7780    -4.9400 ha         1 DDT       0.144000
     68 H6'1        -2.9620     1.2830    -5.6100 ha         1 DDT       0.144000
     69 H7'1        -1.4300     2.8050    -6.7940 ha         1 DDT       0.117000
     70 H8'1         0.8840     2.1320    -7.2270 ha         1 DDT       0.126000
     71 H9'1         3.8130     2.6830    -6.5760 h1         1 DDT       0.035367
     72 H9'2         2.4310     2.2860    -5.5610 h1         1 DDT       0.035367
     73 H9'3         3.9860     1.5020    -5.2670 h1         1 DDT       0.035367
     74 HB1          4.5890     1.1810    -8.2200 h1         1 DDT       0.035367
     75 HB2          4.8760    -0.1130    -7.0580 h1         1 DDT       0.035367
     76 HB3          3.8280    -0.3920    -8.4620 h1         1 DDT       0.035367
     77 N2           2.9520     0.8270    -7.0010 nh         1 DDT      -0.777400
@<TRIPOS>BOND
     1     1     2 ar  
     2     1    10 ar  
     3     1    13 1   
     4     2     3 ar  
     5     2    45 1   
     6     3     4 ar  
     7     3    46 1   
     8     4     5 ar  
     9     4    47 1   
    10     5     6 ar  
    11     5    10 ar  
    12     6     7 ar  
    13     6    23 1   
    14     7     8 ar  
    15     7    48 1   
    16     8     9 ar  
    17     8    49 1   
    18     9    10 ar  
    19     9    50 1   
    20    11    13 1   
    21    11    51 1   
    22    11    52 1   
    23    11    53 1   
    24    12    13 1   
    25    12    54 1   
    26    12    55 1   
    27    12    56 1   
    28    14    15 1   
    29    14    16 1   
    30    14    26 1   
    31    14    57 1   
    32    15    27 1   
    33    15    28 1   
    34    16    17 1   
    35    16    58 1   
    36    16    59 1   
    37    17    18 ar  
    38    17    22 ar  
    39    18    19 ar  
    40    18    60 1   
    41    19    20 ar  
    42    19    61 1   
    43    20    21 ar  
    44    20    29 1   
    45    21    22 ar  
    46    21    62 1   
    47    22    63 1   
    48    23    24 2   
    49    23    25 2   
    50    23    26 1   
    51    26    64 1   
    52    29    30 1   
    53    30    31 2   
    54    30    32 2   
    55    30    38 1   
    56    33    34 ar  
    57    33    42 ar  
    58    33    77 1   
    59    34    35 ar  
    60    34    65 1   
    61    35    36 ar  
    62    35    66 1   
    63    36    37 ar  
    64    36    67 1   
    65    37    38 ar  
    66    37    42 ar  
    67    38    39 ar  
    68    39    40 ar  
    69    39    68 1   
    70    40    41 ar  
    71    40    69 1   
    72    41    42 ar  
    73    41    70 1   
    74    43    71 1   
    75    43    72 1   
    76    43    73 1   
    77    43    77 1   
    78    44    74 1   
    79    44    75 1   
    80    44    76 1   
    81    44    77 1   
@<TRIPOS>SUBSTRUCTURE
     1 DDT         1 TEMP              0 ****  ****    0 ROOT
