@<TRIPOS>MOLECULE
DDV
   42    45     1     0     0
SMALL
No Charge or Current Charge


@<TRIPOS>ATOM
      1 C4          -3.3800     9.7990     6.6440 ca         1 DDV      -0.108000
      2 C5          -2.8420    10.8810     7.3630 ca         1 DDV      -0.099000
      3 C6          -3.0810     5.7240     6.7320 c6         1 DDV      -0.001700
      4 C7          -3.6920     4.4310     6.1240 c6         1 DDV       0.199300
      5 C8          -3.5540     3.2190     7.1010 c6         1 DDV       0.108500
      6 C9          -3.7890     3.6930     8.5790 c5         1 DDV       0.087300
      7 C10         -2.4690     4.1980     9.2550 c5         1 DDV       0.132600
      8 C11         -3.5990     5.9260     8.2030 c5         1 DDV       0.373300
      9 C13         -5.2630    -0.1940     6.7110 cx         1 DDV      -0.130700
     10 C14         -5.6610    -1.4280     7.4880 cx         1 DDV      -0.129900
     11 C15         -6.6470    -0.2970     7.3110 cx         1 DDV      -0.129900
     12 O2          -3.1010     4.0950     4.8610 oh         1 DDV      -0.645000
     13 N           -4.4720     2.1180     6.6900 n7         1 DDV      -0.878400
     14 O1          -4.5640     4.9150     8.5580 os         1 DDV      -0.436000
     15 O           -2.5480     5.6440     9.1490 os         1 DDV      -0.471000
     16 S           -3.4280     7.2140     5.6780 ss         1 DDV      -0.128000
     17 C3          -2.7030     8.5670     6.6040 ca         1 DDV      -0.101000
     18 C2          -1.4720     8.4270     7.2770 ca         1 DDV      -0.108000
     19 C1          -0.9340     9.5100     7.9950 ca         1 DDV      -0.099000
     20 C           -1.6200    10.7360     8.0410 ca         1 DDV      -0.115000
     21 H1          -4.3270     9.9170     6.1220 ha         1 DDV       0.121500
     22 H2          -3.3720    11.8310     7.3940 ha         1 DDV       0.113000
     23 H3          -1.9920     5.6030     6.7570 h1         1 DDV       0.103700
     24 H4          -4.7670     4.6210     5.9800 h1         1 DDV       0.054700
     25 H5          -2.5220     2.8430     7.0230 h1         1 DDV       0.078700
     26 H6          -4.2940     2.9220     9.1740 h1         1 DDV       0.093700
     27 H7          -2.4180     3.9190    10.3160 h1         1 DDV       0.060700
     28 H8          -1.5620     3.8350     8.7530 h1         1 DDV       0.060700
     29 H9          -4.0050     6.9350     8.3630 h2         1 DDV       0.116700
     30 H10         -4.3170     0.8100     8.3590 h1         1 DDV       0.033700
     31 H11         -3.2300     0.4270     7.0110 h1         1 DDV       0.033700
     32 H12         -5.1870    -0.3030     5.6310 hc         1 DDV       0.090700
     33 H13         -5.2290    -1.5740     8.4760 hc         1 DDV       0.072200
     34 H14         -5.8340    -2.3450     6.9280 hc         1 DDV       0.072200
     35 H15         -6.8760     0.3150     8.1810 hc         1 DDV       0.072200
     36 H16         -7.4830    -0.4530     6.6320 hc         1 DDV       0.072200
     37 H17         -3.4070     3.1760     4.6870 ho         1 DDV       0.467000
     38 H18         -5.4410     2.3890     6.9010 hn         1 DDV       0.424000
     39 H20         -0.9210     7.4920     7.2420 ha         1 DDV       0.121500
     40 H21          0.0150     9.3990     8.5140 ha         1 DDV       0.113000
     41 H22         -1.2020    11.5730     8.5960 ha         1 DDV       0.114000
     42 C12         -4.2380     0.7830     7.2640 c3         1 DDV       0.193800
@<TRIPOS>BOND
     1     1     2 ar  
     2     1    17 ar  
     3     1    21 1   
     4     2    20 ar  
     5     2    22 1   
     6     3     4 1   
     7     3     8 1   
     8     3    16 1   
     9     3    23 1   
    10     4     5 1   
    11     4    12 1   
    12     4    24 1   
    13     5     6 1   
    14     5    13 1   
    15     5    25 1   
    16     6     7 1   
    17     6    14 1   
    18     6    26 1   
    19     7    15 1   
    20     7    27 1   
    21     7    28 1   
    22     8    14 1   
    23     8    15 1   
    24     8    29 1   
    25     9    10 1   
    26     9    11 1   
    27     9    32 1   
    28     9    42 1   
    29    10    11 1   
    30    10    33 1   
    31    10    34 1   
    32    11    35 1   
    33    11    36 1   
    34    12    37 1   
    35    13    38 1   
    36    13    42 1   
    37    16    17 1   
    38    17    18 ar  
    39    18    19 ar  
    40    18    39 1   
    41    19    20 ar  
    42    19    40 1   
    43    20    41 1   
    44    30    42 1   
    45    31    42 1   
@<TRIPOS>SUBSTRUCTURE
     1 DDV         1 TEMP              0 ****  ****    0 ROOT
