@<TRIPOS>MOLECULE
DDV
   42    45     1     0     0
SMALL
abcg2


@<TRIPOS>ATOM
      1 C4          -3.3030     9.8430     6.4820 ca         1 DDV      -0.108000
      2 C5          -2.5370    10.9370     6.8490 ca         1 DDV      -0.099000
      3 C6          -3.2390     5.7630     7.0200 c6         1 DDV      -0.001700
      4 C7          -3.9690     4.5590     6.4290 c6         1 DDV       0.199300
      5 C8          -3.7540     3.3220     7.3100 c6         1 DDV       0.108500
      6 C9          -4.0120     3.6880     8.7920 c5         1 DDV       0.087300
      7 C10         -2.7240     3.9050     9.5750 c5         1 DDV       0.132600
      8 C11         -3.4810     5.8010     8.5510 c5         1 DDV       0.373300
      9 C13         -5.0200    -0.1170     6.5020 cx         1 DDV      -0.130700
     10 C14         -5.2790    -1.4370     7.1560 cx         1 DDV      -0.129900
     11 C15         -6.3900    -0.4390     7.0240 cx         1 DDV      -0.129900
     12 O2          -3.5180     4.3240     5.1240 oh         1 DDV      -0.645000
     13 N           -4.5550     2.2520     6.7560 n7         1 DDV      -0.878400
     14 O1          -4.5750     4.9980     8.8710 os         1 DDV      -0.436000
     15 O           -2.3810     5.2430     9.2330 os         1 DDV      -0.471000
     16 S           -3.8920     7.2340     6.1860 ss         1 DDV      -0.128000
     17 C3          -2.8510     8.5470     6.7410 ca         1 DDV      -0.101000
     18 C2          -1.6250     8.3690     7.3780 ca         1 DDV      -0.108000
     19 C1          -0.8700     9.4740     7.7510 ca         1 DDV      -0.099000
     20 C           -1.3150    10.7600     7.4870 ca         1 DDV      -0.115000
     21 H1          -4.2580     9.9980     5.9950 ha         1 DDV       0.121500
     22 H2          -2.9030    11.9340     6.6400 ha         1 DDV       0.113000
     23 H3          -2.1710     5.6680     6.8060 h1         1 DDV       0.103700
     24 H4          -5.0490     4.7750     6.4270 h1         1 DDV       0.054700
     25 H5          -2.7070     3.0170     7.1960 h1         1 DDV       0.078700
     26 H6          -4.6950     2.9860     9.2740 h1         1 DDV       0.093700
     27 H7          -2.8880     3.8150    10.6530 h1         1 DDV       0.060700
     28 H8          -1.9240     3.2210     9.2870 h1         1 DDV       0.060700
     29 H9          -3.6640     6.8160     8.9120 h2         1 DDV       0.116700
     30 H10         -4.2980     0.7880     8.2960 h1         1 DDV       0.033700
     31 H11         -3.1310     0.7660     6.9810 h1         1 DDV       0.033700
     32 H12         -4.9030    -0.1290     5.4230 hc         1 DDV       0.090700
     33 H13         -4.8670    -1.6070     8.1430 hc         1 DDV       0.072200
     34 H14         -5.3040    -2.3190     6.5290 hc         1 DDV       0.072200
     35 H15         -6.7160     0.0690     7.9240 hc         1 DDV       0.072200
     36 H16         -7.1820    -0.6350     6.3130 hc         1 DDV       0.072200
     37 H17         -3.8680     3.4550     4.8840 ho         1 DDV       0.467000
     38 H18         -5.5390     2.4140     6.9450 hn         1 DDV       0.424000
     39 H20         -1.2380     7.3820     7.5910 ha         1 DDV       0.121500
     40 H21          0.0780     9.3170     8.2510 ha         1 DDV       0.113000
     41 H22         -0.7200    11.6160     7.7770 ha         1 DDV       0.114000
     42 C12         -4.1900     0.9190     7.2070 c3         1 DDV       0.193800
@<TRIPOS>BOND
     1     1     2 ar  
     2     1    17 ar  
     3     1    21 1   
     4     2    20 ar  
     5     2    22 1   
     6     3     4 1   
     7     3     8 1   
     8     3    16 1   
     9     3    23 1   
    10     4     5 1   
    11     4    12 1   
    12     4    24 1   
    13     5     6 1   
    14     5    13 1   
    15     5    25 1   
    16     6     7 1   
    17     6    14 1   
    18     6    26 1   
    19     7    15 1   
    20     7    27 1   
    21     7    28 1   
    22     8    14 1   
    23     8    15 1   
    24     8    29 1   
    25     9    10 1   
    26     9    11 1   
    27     9    32 1   
    28     9    42 1   
    29    10    11 1   
    30    10    33 1   
    31    10    34 1   
    32    11    35 1   
    33    11    36 1   
    34    12    37 1   
    35    13    38 1   
    36    13    42 1   
    37    16    17 1   
    38    17    18 ar  
    39    18    19 ar  
    40    18    39 1   
    41    19    20 ar  
    42    19    40 1   
    43    20    41 1   
    44    30    42 1   
    45    31    42 1   
@<TRIPOS>SUBSTRUCTURE
     1 DDV         1 TEMP              0 ****  ****    0 ROOT
