@<TRIPOS>MOLECULE
DDW
   28    27     1     0     0
SMALL
No Charge or Current Charge


@<TRIPOS>ATOM
      1 C2          -5.0290    -0.4890    -0.1530 c3         1 DDW       0.146800
      2 C3          -3.6820     0.0250     0.3940 c3         1 DDW      -0.079400
      3 C4          -2.4660    -0.6440    -0.2840 c3         1 DDW      -0.074400
      4 C5          -1.1120    -0.1350     0.2600 c3         1 DDW      -0.071400
      5 C6           0.1030    -0.8080    -0.4210 c3         1 DDW      -0.041400
      6 N1          -6.1710     0.1640     0.5120 n8         1 DDW      -0.998200
      7 C7           1.4780    -0.3540     0.1430 c3         1 DDW      -0.193700
      8 C10          1.6960     1.1660    -0.0080 c          1 DDW       0.721000
      9 O12          1.7970     1.8380     1.0080 o          1 DDW      -0.727500
     10 O11          1.7260     1.6450    -1.1330 o          1 DDW      -0.727500
     11 C8           2.6370    -1.1390    -0.5060 c3         1 DDW       0.123600
     12 S9           4.2800    -0.8570     0.2990 sh         1 DDW      -0.436800
     13 H1          -5.0910    -0.2900    -1.2320 h1         1 DDW       0.020700
     14 H2          -5.1050    -1.5740     0.0060 h1         1 DDW       0.020700
     15 H3          -3.6220     1.1110     0.2490 hc         1 DDW       0.046200
     16 H4          -3.6370    -0.1600     1.4750 hc         1 DDW       0.046200
     17 H5          -2.5270    -1.7300    -0.1400 hc         1 DDW       0.025200
     18 H6          -2.5110    -0.4610    -1.3650 hc         1 DDW       0.025200
     19 H7          -1.0570     0.9510     0.1170 hc         1 DDW       0.051700
     20 H8          -1.0660    -0.3190     1.3400 hc         1 DDW       0.051700
     21 H9           0.0130    -1.8950    -0.3000 hc         1 DDW       0.016200
     22 H10          0.0680    -0.6090    -1.5000 hc         1 DDW       0.016200
     23 H11         -6.1500     1.1680     0.2970 hn         1 DDW       0.384000
     24 H12         -7.0420    -0.1590     0.0730 hn         1 DDW       0.384000
     25 H14          1.4820    -0.5920     1.2140 hc         1 DDW       0.044700
     26 H16          2.4240    -2.2140    -0.4470 h1         1 DDW       0.036700
     27 H17          2.7190    -0.8730    -1.5680 h1         1 DDW       0.036700
     28 H18          4.9820    -1.6840    -0.5100 hs         1 DDW       0.151800
@<TRIPOS>BOND
     1     1     2 1   
     2     1     6 1   
     3     1    13 1   
     4     1    14 1   
     5     2     3 1   
     6     2    15 1   
     7     2    16 1   
     8     3     4 1   
     9     3    17 1   
    10     3    18 1   
    11     4     5 1   
    12     4    19 1   
    13     4    20 1   
    14     5     7 1   
    15     5    21 1   
    16     5    22 1   
    17     6    23 1   
    18     6    24 1   
    19     7     8 1   
    20     7    11 1   
    21     7    25 1   
    22     8     9 1   
    23     8    10 1   
    24    11    12 1   
    25    11    26 1   
    26    11    27 1   
    27    12    28 1   
@<TRIPOS>SUBSTRUCTURE
     1 DDW         1 TEMP              0 ****  ****    0 ROOT
