@<TRIPOS>MOLECULE
DDW
   28    27     1     0     0
SMALL
abcg2


@<TRIPOS>ATOM
      1 C2          -4.9700    -0.4610    -0.1770 c3         1 DDW       0.146800
      2 C3          -3.6420     0.0250     0.3830 c3         1 DDW      -0.079400
      3 C4          -2.4420    -0.6450    -0.2740 c3         1 DDW      -0.074400
      4 C5          -1.1070    -0.1500     0.2690 c3         1 DDW      -0.071400
      5 C6           0.0870    -0.8170    -0.4020 c3         1 DDW      -0.041400
      6 N1          -6.0900     0.1910     0.4870 n8         1 DDW      -0.998200
      7 C7           1.4370    -0.3840     0.1720 c3         1 DDW      -0.193700
      8 C10          1.6490     1.1370     0.0210 c          1 DDW       0.721000
      9 O12          1.8310     1.7980     1.0620 o          1 DDW      -0.727500
     10 O11          1.6230     1.5820    -1.1450 o          1 DDW      -0.727500
     11 C8           2.5500    -1.1510    -0.5300 c3         1 DDW       0.123600
     12 S9           4.1650    -0.7080     0.2050 sh         1 DDW      -0.436800
     13 H1          -4.9650    -0.3190    -1.2690 h1         1 DDW       0.020700
     14 H2          -5.0540    -1.5390    -0.0120 h1         1 DDW       0.020700
     15 H3          -3.5680     1.1100     0.2470 hc         1 DDW       0.046200
     16 H4          -3.6210    -0.1520     1.4630 hc         1 DDW       0.046200
     17 H5          -2.5100    -1.7300    -0.1360 hc         1 DDW       0.025200
     18 H6          -2.4780    -0.4760    -1.3560 hc         1 DDW       0.025200
     19 H7          -1.0500     0.9350     0.1330 hc         1 DDW       0.051700
     20 H8          -1.0640    -0.3240     1.3490 hc         1 DDW       0.051700
     21 H9          -0.0110    -1.9040    -0.3030 hc         1 DDW       0.016200
     22 H10          0.0660    -0.6050    -1.4750 hc         1 DDW       0.016200
     23 H11         -6.0790     1.1790     0.2640 hn         1 DDW       0.384000
     24 H12         -6.9590    -0.1620     0.1080 hn         1 DDW       0.384000
     25 H14          1.4590    -0.6440     1.2360 hc         1 DDW       0.044700
     26 H16          2.4020    -2.2260    -0.4210 h1         1 DDW       0.036700
     27 H17          2.5600    -0.9110    -1.5930 h1         1 DDW       0.036700
     28 H18          4.9180    -1.5700    -0.4870 hs         1 DDW       0.151800
@<TRIPOS>BOND
     1     1     2 1   
     2     1     6 1   
     3     1    13 1   
     4     1    14 1   
     5     2     3 1   
     6     2    15 1   
     7     2    16 1   
     8     3     4 1   
     9     3    17 1   
    10     3    18 1   
    11     4     5 1   
    12     4    19 1   
    13     4    20 1   
    14     5     7 1   
    15     5    21 1   
    16     5    22 1   
    17     6    23 1   
    18     6    24 1   
    19     7     8 1   
    20     7    11 1   
    21     7    25 1   
    22     8     9 1   
    23     8    10 1   
    24    11    12 1   
    25    11    26 1   
    26    11    27 1   
    27    12    28 1   
@<TRIPOS>SUBSTRUCTURE
     1 DDW         1 TEMP              0 ****  ****    0 ROOT
