@<TRIPOS>MOLECULE
DDZ
   14    13     1     0     0
SMALL
bcc


@<TRIPOS>ATOM
      1 N           20.1170    37.1000   -18.5870 n8         1 DDZ      -0.874800
      2 CA          20.8900    37.9150   -19.5080 c3         1 DDZ      -0.004500
      3 C           19.9820    38.9930   -20.1470 c          1 DDZ       0.941600
      4 O           20.4460    40.1450   -20.2410 o          1 DDZ      -0.831300
      5 CB          21.5500    37.1020   -20.6280 c3         1 DDZ       0.299900
      6 OXT         18.8660    38.5950   -20.5380 o          1 DDZ      -0.831300
      7 HN1         19.2830    36.7870   -19.0680 hn         1 DDZ       0.328800
      8 HN2         20.6370    36.2710   -18.3300 hn         1 DDZ       0.328800
      9 HA          21.6910    38.4150   -18.9470 h1         1 DDZ       0.053700
     10 HB          20.7720    36.5540   -21.1760 h2         1 DDZ       0.051700
     11 HG1         22.6770    35.5210   -20.6660 ho         1 DDZ       0.402000
     12 HG2         22.5970    38.6550   -21.1360 ho         1 DDZ       0.402000
     13 OG1         22.4460    36.2050   -20.0280 oh         1 DDZ      -0.633800
     14 OG2         22.1790    37.9090   -21.5810 oh         1 DDZ      -0.633800
@<TRIPOS>BOND
     1     1     2 1   
     2     1     7 1   
     3     1     8 1   
     4     2     3 1   
     5     2     5 1   
     6     2     9 1   
     7     3     4 1   
     8     3     6 1   
     9     5    10 1   
    10     5    13 1   
    11     5    14 1   
    12    11    13 1   
    13    12    14 1   
@<TRIPOS>SUBSTRUCTURE
     1 DDZ         1 TEMP              0 ****  ****    0 ROOT
