@<TRIPOS>MOLECULE
DDZ
   14    13     1     0     0
SMALL
No Charge or Current Charge


@<TRIPOS>ATOM
      1 N           20.2440    37.1360   -18.4540 n8         1 DDZ      -0.985200
      2 CA          20.8290    37.9920   -19.5710 c3         1 DDZ      -0.004500
      3 C           19.8460    39.0110   -20.2600 c          1 DDZ       0.731000
      4 O           20.0540    40.2090   -20.1140 o          1 DDZ      -0.726000
      5 CB          21.5170    37.1370   -20.6860 c3         1 DDZ       0.346300
      6 OXT         18.8470    38.5700   -20.8170 o          1 DDZ      -0.726000
      7 HN1         19.4170    36.6460   -18.8180 hn         1 DDZ       0.384000
      8 HN2         20.9110    36.3720   -18.2830 hn         1 DDZ       0.384000
      9 HA          21.6180    38.5970   -19.1040 h1         1 DDZ       0.053700
     10 HB          20.7660    36.7290   -21.3760 h2         1 DDZ       0.051700
     11 HG1         22.3800    35.4210   -20.8460 ho         1 DDZ       0.441000
     12 HG2         22.9780    38.3840   -20.7270 ho         1 DDZ       0.441000
     13 OG1         22.2590    36.0700   -20.1210 oh         1 DDZ      -0.696000
     14 OG2         22.4680    37.8930   -21.4040 oh         1 DDZ      -0.696000
@<TRIPOS>BOND
     1     1     2 1   
     2     1     7 1   
     3     1     8 1   
     4     2     3 1   
     5     2     5 1   
     6     2     9 1   
     7     3     4 1   
     8     3     6 1   
     9     5    10 1   
    10     5    13 1   
    11     5    14 1   
    12    11    13 1   
    13    12    14 1   
@<TRIPOS>SUBSTRUCTURE
     1 DDZ         1 TEMP              0 ****  ****    0 ROOT
