@<TRIPOS>MOLECULE
DE0
   98    99     1     0     0
SMALL
No Charge or Current Charge


@<TRIPOS>ATOM
      1 C10          9.0030   -15.3410     5.4750 c          1 DE0       0.596100
      2 C13          6.6780   -14.5840     6.3350 c3         1 DE0      -0.076400
      3 C15          4.3620   -15.7070     6.2750 c3         1 DE0      -0.099400
      4 C20          0.6440   -14.2050     1.6520 c3         1 DE0      -0.082400
      5 C21          0.3000   -13.0020     0.7350 c3         1 DE0      -0.072400
      6 C22         -0.8820   -12.1380     1.2320 c3         1 DE0      -0.084400
      7 C26          2.2450   -11.6150     3.5900 c          1 DE0       0.593100
      8 C28          3.4800   -10.7220     3.2510 c3         1 DE0       0.036700
      9 C01         10.6290   -11.1870     2.1060 ca         1 DE0      -0.089000
     10 C02         10.4010   -12.5720     2.2120 ca         1 DE0      -0.081300
     11 C03         11.5650   -13.5380     2.3620 c3         1 DE0       0.142300
     12 C05         12.2820   -15.1140     4.1780 c          1 DE0       0.599100
     13 C07         12.4780   -15.2580     5.6860 c3         1 DE0      -0.187400
     14 C08         11.2950   -15.9940     6.3380 c3         1 DE0       0.106000
     15 C12          7.9560   -14.1770     5.5560 c3         1 DE0       0.152500
     16 C14          5.6510   -15.3680     5.4870 c3         1 DE0      -0.073400
     17 C16          3.1980   -16.1970     5.3900 c3         1 DE0       0.100000
     18 C18          1.4480   -15.1090     3.9320 c          1 DE0       0.586100
     19 C19          1.1080   -13.8400     3.0880 c3         1 DE0       0.029700
     20 C23         -1.2270   -10.9890     0.2630 c3         1 DE0       0.148800
     21 C29          3.0670    -9.4280     2.5060 c3         1 DE0      -0.094400
     22 C30          4.2440    -8.4520     2.2520 c3         1 DE0      -0.071400
     23 C31          3.8250    -7.1000     1.6260 c3         1 DE0      -0.078400
     24 C32          3.2440    -7.2190     0.2000 c3         1 DE0       0.143800
     25 C35          5.6510   -12.0070     3.0140 c          1 DE0       0.602100
     26 C37          6.5670   -12.7260     2.0190 c3         1 DE0      -0.109100
     27 C38          7.9920   -12.1820     2.0410 ca         1 DE0      -0.086300
     28 C39          9.0830   -13.0630     2.1780 ca         1 DE0      -0.071000
     29 C40          8.2320   -10.7990     1.9240 ca         1 DE0      -0.106000
     30 C41          9.5460   -10.3040     1.9600 ca         1 DE0      -0.125000
     31 N04         11.7830   -13.9060     3.7590 ns         1 DE0      -0.507900
     32 N09         10.0890   -15.1700     6.3040 ns         1 DE0      -0.487900
     33 N17          2.6860   -15.1190     4.5400 ns         1 DE0      -0.494900
     34 N24         -2.3700   -10.1950     0.7490 n8         1 DE0      -1.000200
     35 N25          2.2430   -12.8810     3.0350 ns         1 DE0      -0.491900
     36 N33          2.9340    -5.8930    -0.3680 n8         1 DE0      -0.997200
     37 N34          4.5080   -11.4620     2.4730 ns         1 DE0      -0.531900
     38 N43          8.5130   -12.9290     6.1580 nu         1 DE0      -0.915400
     39 N45         10.4350   -12.0230     5.6480 n2         1 DE0      -0.927100
     40 N46          8.4180   -11.0570     5.4720 nv         1 DE0      -1.081200
     41 O06         12.5860   -16.0020     3.3950 o          1 DE0      -0.624100
     42 O11          8.8980   -16.2980     4.7180 o          1 DE0      -0.600100
     43 O27          1.3380   -11.2300     4.3150 o          1 DE0      -0.618100
     44 O36          5.8890   -11.9580     4.2110 o          1 DE0      -0.588100
     45 O42          0.6790   -16.0560     4.0390 o          1 DE0      -0.600100
     46 H1           6.9570   -15.1640     7.2240 hc         1 DE0       0.039700
     47 H2           6.1770   -13.6770     6.6980 hc         1 DE0       0.039700
     48 H3           4.5950   -16.4810     7.0160 hc         1 DE0       0.041700
     49 H4           4.0260   -14.8260     6.8370 hc         1 DE0       0.041700
     50 H5          -0.2330   -14.8620     1.7150 hc         1 DE0       0.066200
     51 H6           1.4330   -14.7950     1.1680 hc         1 DE0       0.066200
     52 H7           0.0550   -13.3910    -0.2620 hc         1 DE0       0.035200
     53 H8           1.1860   -12.3680     0.6060 hc         1 DE0       0.035200
     54 H9          -0.6390   -11.7120     2.2130 hc         1 DE0       0.052200
     55 H10         -1.7630   -12.7780     1.3660 hc         1 DE0       0.052200
     56 H11          3.9100   -10.4340     4.2190 h1         1 DE0       0.095700
     57 H12         11.6440   -10.7960     2.1320 ha         1 DE0       0.121000
     58 H13         11.3610   -14.4410     1.7700 h1         1 DE0       0.058700
     59 H14         12.4840   -13.0820     1.9700 h1         1 DE0       0.058700
     60 H15         13.3880   -15.8400     5.8720 hc         1 DE0       0.062700
     61 H16         12.5550   -14.2700     6.1540 hc         1 DE0       0.062700
     62 H17         11.1170   -16.9520     5.8300 h1         1 DE0       0.062700
     63 H18         11.5350   -16.2080     7.3890 h1         1 DE0       0.062700
     64 H19          7.6650   -13.9660     4.5190 h1         1 DE0       0.102700
     65 H20          5.3960   -14.7670     4.6050 hc         1 DE0       0.064700
     66 H21          6.1020   -16.2970     5.1150 hc         1 DE0       0.064700
     67 H22          2.3850   -16.5560     6.0350 h1         1 DE0       0.059700
     68 H23          3.5300   -17.0320     4.7580 h1         1 DE0       0.059700
     69 H24          0.2690   -13.3620     3.6090 h1         1 DE0       0.078700
     70 H25         -1.4800   -11.3990    -0.7240 h1         1 DE0       0.023700
     71 H26         -0.3590   -10.3240     0.1540 h1         1 DE0       0.023700
     72 H27          2.3020    -8.9100     3.0970 hc         1 DE0       0.063700
     73 H28          2.5980    -9.7020     1.5540 hc         1 DE0       0.063700
     74 H29          4.9880    -8.9270     1.6010 hc         1 DE0       0.040200
     75 H30          4.7470    -8.2500     3.2060 hc         1 DE0       0.040200
     76 H31          4.7060    -6.4470     1.5950 hc         1 DE0       0.051200
     77 H32          3.0930    -6.6110     2.2810 hc         1 DE0       0.051200
     78 H33          2.3210    -7.8150     0.2170 h1         1 DE0       0.029700
     79 H34          3.9710    -7.7200    -0.4550 h1         1 DE0       0.029700
     80 H35          6.1520   -12.6510     1.0070 hc         1 DE0       0.064200
     81 H36          6.5650   -13.7880     2.2890 hc         1 DE0       0.064200
     82 H37          8.9100   -14.1340     2.2600 ha         1 DE0       0.126000
     83 H38          7.4020   -10.1050     1.8070 ha         1 DE0       0.104000
     84 H39          9.7260    -9.2350     1.8720 ha         1 DE0       0.111000
     85 H40         11.4920   -13.2500     4.4860 hn         1 DE0       0.365500
     86 H41         10.0860   -14.2810     6.8000 hn         1 DE0       0.322500
     87 H42          3.2450   -14.2830     4.4270 hn         1 DE0       0.325500
     88 H43         -2.6040    -9.4830     0.0470 hn         1 DE0       0.393500
     89 H44         -3.2050   -10.7920     0.7730 hn         1 DE0       0.393500
     90 H46          3.0280   -13.0970     2.4320 hn         1 DE0       0.325500
     91 H47          2.4970    -6.0170    -1.2900 hn         1 DE0       0.392500
     92 H48          2.1920    -5.4550     0.1920 hn         1 DE0       0.392500
     93 H50          4.4150   -11.5070     1.4640 hn         1 DE0       0.318500
     94 H51          7.8700   -12.3890     6.7180 hn         1 DE0       0.478000
     95 H52         10.7180   -11.0580     5.4610 hn         1 DE0       0.392400
     96 H53          7.5180   -11.3310     5.0850 hn         1 DE0       0.461500
     97 H54          8.8100   -10.2630     4.9910 hn         1 DE0       0.461500
     98 C44          9.2120   -12.0820     5.4540 c2         1 DE0       0.825100
@<TRIPOS>BOND
     1     1    15 1   
     2     1    32 1   
     3     1    42 2   
     4     2    15 1   
     5     2    16 1   
     6     2    46 1   
     7     2    47 1   
     8     3    16 1   
     9     3    17 1   
    10     3    48 1   
    11     3    49 1   
    12     4     5 1   
    13     4    19 1   
    14     4    50 1   
    15     4    51 1   
    16     5     6 1   
    17     5    52 1   
    18     5    53 1   
    19     6    20 1   
    20     6    54 1   
    21     6    55 1   
    22     7     8 1   
    23     7    35 1   
    24     7    43 2   
    25     8    21 1   
    26     8    37 1   
    27     8    56 1   
    28     9    10 ar  
    29     9    30 ar  
    30     9    57 1   
    31    10    11 1   
    32    10    28 ar  
    33    11    31 1   
    34    11    58 1   
    35    11    59 1   
    36    12    13 1   
    37    12    31 1   
    38    12    41 2   
    39    13    14 1   
    40    13    60 1   
    41    13    61 1   
    42    14    32 1   
    43    14    62 1   
    44    14    63 1   
    45    15    38 1   
    46    15    64 1   
    47    16    65 1   
    48    16    66 1   
    49    17    33 1   
    50    17    67 1   
    51    17    68 1   
    52    18    19 1   
    53    18    33 1   
    54    18    45 2   
    55    19    35 1   
    56    19    69 1   
    57    20    34 1   
    58    20    70 1   
    59    20    71 1   
    60    21    22 1   
    61    21    72 1   
    62    21    73 1   
    63    22    23 1   
    64    22    74 1   
    65    22    75 1   
    66    23    24 1   
    67    23    76 1   
    68    23    77 1   
    69    24    36 1   
    70    24    78 1   
    71    24    79 1   
    72    25    26 1   
    73    25    37 1   
    74    25    44 2   
    75    26    27 1   
    76    26    80 1   
    77    26    81 1   
    78    27    28 ar  
    79    27    29 ar  
    80    28    82 1   
    81    29    30 ar  
    82    29    83 1   
    83    30    84 1   
    84    31    85 1   
    85    32    86 1   
    86    33    87 1   
    87    34    88 1   
    88    34    89 1   
    89    35    90 1   
    90    36    91 1   
    91    36    92 1   
    92    37    93 1   
    93    38    94 1   
    94    38    98 1   
    95    39    95 1   
    96    39    98 2   
    97    40    96 1   
    98    40    97 1   
    99    40    98 1   
@<TRIPOS>SUBSTRUCTURE
     1 DE0         1 TEMP              0 ****  ****    0 ROOT
