@<TRIPOS>MOLECULE
DE0
   98    99     1     0     0
SMALL
abcg2


@<TRIPOS>ATOM
      1 C10          8.6960   -14.9360     5.7980 c          1 DE0       0.596100
      2 C13          6.5000   -13.9260     6.4540 c3         1 DE0      -0.076400
      3 C15          4.2840   -15.0880     6.5660 c3         1 DE0      -0.099400
      4 C20          1.4980   -14.3360     1.3770 c3         1 DE0      -0.082400
      5 C21          1.0870   -13.1620     0.4900 c3         1 DE0      -0.072400
      6 C22          0.0660   -12.2050     1.0930 c3         1 DE0      -0.084400
      7 C26          3.0370   -11.8310     3.5090 c          1 DE0       0.593100
      8 C28          3.8680   -10.6320     3.0540 c3         1 DE0       0.036700
      9 C01         10.9510   -12.6100     1.5460 ca         1 DE0      -0.089000
     10 C02         10.0160   -13.6010     1.8400 ca         1 DE0      -0.081300
     11 C03         10.4650   -14.9370     2.3650 c3         1 DE0       0.142300
     12 C05         11.5210   -15.8440     4.3450 c          1 DE0       0.599100
     13 C07         11.8880   -15.6060     5.7950 c3         1 DE0      -0.187400
     14 C08         10.7290   -15.9210     6.7510 c3         1 DE0       0.106000
     15 C12          7.8400   -13.6750     5.7420 c3         1 DE0       0.152500
     16 C14          5.5010   -14.7910     5.6980 c3         1 DE0      -0.073400
     17 C16          3.1570   -15.8130     5.8410 c3         1 DE0       0.100000
     18 C18          2.6110   -15.0920     3.5360 c          1 DE0       0.586100
     19 C19          1.9900   -13.9230     2.7600 c3         1 DE0       0.029700
     20 C23         -0.2210   -11.0300     0.1690 c3         1 DE0       0.148800
     21 C29          2.8920    -9.5410     2.6040 c3         1 DE0      -0.094400
     22 C30          3.5600    -8.2020     2.3100 c3         1 DE0      -0.071400
     23 C31          2.5560    -7.0580     2.2040 c3         1 DE0      -0.078400
     24 C32          1.5600    -7.2120     1.0630 c3         1 DE0       0.143800
     25 C35          5.9860   -11.5480     2.2170 c          1 DE0       0.602100
     26 C37          6.7790   -11.8270     0.9510 c3         1 DE0      -0.109100
     27 C38          8.2360   -12.0910     1.1850 ca         1 DE0      -0.086300
     28 C39          8.6680   -13.3270     1.6580 ca         1 DE0      -0.071000
     29 C40          9.1820   -11.1110     0.9090 ca         1 DE0      -0.106000
     30 C41         10.5350   -11.3700     1.0890 ca         1 DE0      -0.125000
     31 N04         11.0300   -14.7870     3.6890 ns         1 DE0      -0.507900
     32 N09          9.6840   -14.9290     6.7050 ns         1 DE0      -0.487900
     33 N17          2.5030   -14.9670     4.8660 ns         1 DE0      -0.494900
     34 N24         -1.1190   -10.0720     0.7970 n8         1 DE0      -1.000200
     35 N25          2.9700   -12.8610     2.6550 ns         1 DE0      -0.491900
     36 N33          0.6970    -6.0410     0.9760 n8         1 DE0      -0.997200
     37 N34          4.7950   -10.9400     1.9940 ns         1 DE0      -0.531900
     38 N43          8.4720   -12.5300     6.3690 nu         1 DE0      -0.915400
     39 N45         10.2190   -12.3250     4.8800 n2         1 DE0      -0.927100
     40 N46          9.4410   -10.4610     6.1050 nv         1 DE0      -1.081200
     41 O06         11.6670   -16.9480     3.8250 o          1 DE0      -0.624100
     42 O11          8.4440   -15.8960     5.0820 o          1 DE0      -0.600100
     43 O27          2.4040   -11.7780     4.5550 o          1 DE0      -0.618100
     44 O36          6.3470   -11.8760     3.3300 o          1 DE0      -0.588100
     45 O42          3.1720   -16.0210     2.9740 o          1 DE0      -0.600100
     46 H1           6.6940   -14.3500     7.4450 hc         1 DE0       0.039700
     47 H2           6.0270   -12.9540     6.6270 hc         1 DE0       0.039700
     48 H3           4.5910   -15.7000     7.4190 hc         1 DE0       0.041700
     49 H4           3.8910   -14.1580     6.9920 hc         1 DE0       0.041700
     50 H5           0.6540   -15.0170     1.5140 hc         1 DE0       0.066200
     51 H6           2.2750   -14.9090     0.8670 hc         1 DE0       0.066200
     52 H7           0.6900   -13.5700    -0.4430 hc         1 DE0       0.035200
     53 H8           1.9760   -12.5940     0.1990 hc         1 DE0       0.035200
     54 H9           0.4190   -11.8030     2.0480 hc         1 DE0       0.052200
     55 H10         -0.8630   -12.7420     1.3120 hc         1 DE0       0.052200
     56 H11          4.4190   -10.2740     3.9270 h1         1 DE0       0.095700
     57 H12         12.0080   -12.8110     1.6770 ha         1 DE0       0.121000
     58 H13          9.6170   -15.6290     2.3830 h1         1 DE0       0.058700
     59 H14         11.2120   -15.3690     1.6940 h1         1 DE0       0.058700
     60 H15         12.7280   -16.2570     6.0450 hc         1 DE0       0.062700
     61 H16         12.2090   -14.5750     5.9600 hc         1 DE0       0.062700
     62 H17         10.3100   -16.9040     6.5340 h1         1 DE0       0.062700
     63 H18         11.1160   -15.9560     7.7690 h1         1 DE0       0.062700
     64 H19          7.6590   -13.4670     4.6830 h1         1 DE0       0.102700
     65 H20          5.2080   -14.2650     4.7850 hc         1 DE0       0.064700
     66 H21          5.9570   -15.7320     5.3860 hc         1 DE0       0.064700
     67 H22          2.4120   -16.1500     6.5650 h1         1 DE0       0.059700
     68 H23          3.5320   -16.6990     5.3300 h1         1 DE0       0.059700
     69 H24          1.1470   -13.5320     3.3330 h1         1 DE0       0.078700
     70 H25         -0.5900   -11.4110    -0.7940 h1         1 DE0       0.023700
     71 H26          0.7210   -10.5170    -0.0490 h1         1 DE0       0.023700
     72 H27          2.1520    -9.4040     3.3950 hc         1 DE0       0.063700
     73 H28          2.3420    -9.8980     1.7270 hc         1 DE0       0.063700
     74 H29          4.1460    -8.2560     1.3880 hc         1 DE0       0.040200
     75 H30          4.2710    -7.9790     3.1110 hc         1 DE0       0.040200
     76 H31          3.0960    -6.1170     2.0710 hc         1 DE0       0.051200
     77 H32          2.0130    -6.9700     3.1520 hc         1 DE0       0.051200
     78 H33          0.9970    -8.1480     1.1810 h1         1 DE0       0.029700
     79 H34          2.1120    -7.3020     0.1230 h1         1 DE0       0.029700
     80 H35          6.6510   -10.9980     0.2500 hc         1 DE0       0.064200
     81 H36          6.3120   -12.6950     0.4720 hc         1 DE0       0.064200
     82 H37          7.9380   -14.0960     1.8820 ha         1 DE0       0.126000
     83 H38          8.8620   -10.1450     0.5380 ha         1 DE0       0.104000
     84 H39         11.2660   -10.6040     0.8610 ha         1 DE0       0.111000
     85 H40         10.7510   -13.9400     4.2120 hn         1 DE0       0.365500
     86 H41          9.8550   -14.0530     7.1760 hn         1 DE0       0.322500
     87 H42          2.0780   -14.1220     5.2180 hn         1 DE0       0.325500
     88 H43         -1.2530    -9.2810     0.1810 hn         1 DE0       0.393500
     89 H44         -2.0350   -10.4920     0.9030 hn         1 DE0       0.393500
     90 H46          3.5640   -12.8520     1.8410 hn         1 DE0       0.325500
     91 H47          0.0740    -6.1390     0.1840 hn         1 DE0       0.392500
     92 H48          0.0950    -6.0130     1.7900 hn         1 DE0       0.392500
     93 H50          4.5700   -10.6390     1.0580 hn         1 DE0       0.318500
     94 H51          7.8860   -12.0220     7.0110 hn         1 DE0       0.478000
     95 H52         10.7820   -11.6380     4.3940 hn         1 DE0       0.392400
     96 H53          8.5590   -10.0180     6.3080 hn         1 DE0       0.461500
     97 H54         10.0710    -9.8600     5.6000 hn         1 DE0       0.461500
     98 C44          9.4110   -11.7750     5.7100 c2         1 DE0       0.825100
@<TRIPOS>BOND
     1     1    15 1   
     2     1    32 1   
     3     1    42 2   
     4     2    15 1   
     5     2    16 1   
     6     2    46 1   
     7     2    47 1   
     8     3    16 1   
     9     3    17 1   
    10     3    48 1   
    11     3    49 1   
    12     4     5 1   
    13     4    19 1   
    14     4    50 1   
    15     4    51 1   
    16     5     6 1   
    17     5    52 1   
    18     5    53 1   
    19     6    20 1   
    20     6    54 1   
    21     6    55 1   
    22     7     8 1   
    23     7    35 1   
    24     7    43 2   
    25     8    21 1   
    26     8    37 1   
    27     8    56 1   
    28     9    10 ar  
    29     9    30 ar  
    30     9    57 1   
    31    10    11 1   
    32    10    28 ar  
    33    11    31 1   
    34    11    58 1   
    35    11    59 1   
    36    12    13 1   
    37    12    31 1   
    38    12    41 2   
    39    13    14 1   
    40    13    60 1   
    41    13    61 1   
    42    14    32 1   
    43    14    62 1   
    44    14    63 1   
    45    15    38 1   
    46    15    64 1   
    47    16    65 1   
    48    16    66 1   
    49    17    33 1   
    50    17    67 1   
    51    17    68 1   
    52    18    19 1   
    53    18    33 1   
    54    18    45 2   
    55    19    35 1   
    56    19    69 1   
    57    20    34 1   
    58    20    70 1   
    59    20    71 1   
    60    21    22 1   
    61    21    72 1   
    62    21    73 1   
    63    22    23 1   
    64    22    74 1   
    65    22    75 1   
    66    23    24 1   
    67    23    76 1   
    68    23    77 1   
    69    24    36 1   
    70    24    78 1   
    71    24    79 1   
    72    25    26 1   
    73    25    37 1   
    74    25    44 2   
    75    26    27 1   
    76    26    80 1   
    77    26    81 1   
    78    27    28 ar  
    79    27    29 ar  
    80    28    82 1   
    81    29    30 ar  
    82    29    83 1   
    83    30    84 1   
    84    31    85 1   
    85    32    86 1   
    86    33    87 1   
    87    34    88 1   
    88    34    89 1   
    89    35    90 1   
    90    36    91 1   
    91    36    92 1   
    92    37    93 1   
    93    38    94 1   
    94    38    98 1   
    95    39    95 1   
    96    39    98 2   
    97    40    96 1   
    98    40    97 1   
    99    40    98 1   
@<TRIPOS>SUBSTRUCTURE
     1 DE0         1 TEMP              0 ****  ****    0 ROOT
