@<TRIPOS>MOLECULE
DE1
   33    32     1     0     0
SMALL
No Charge or Current Charge


@<TRIPOS>ATOM
      1 CAA          6.4950    -0.3340     0.0050 c3         1 DE1      -0.089100
      2 CAC          5.2030     0.5040    -0.0060 c3         1 DE1      -0.074400
      3 CAE          3.9220    -0.3580    -0.0000 c3         1 DE1      -0.075400
      4 CAG          2.6270     0.4820    -0.0110 c3         1 DE1      -0.074400
      5 CAI          1.3460    -0.3800    -0.0050 c3         1 DE1      -0.074400
      6 CAK          0.0500     0.4600    -0.0160 c3         1 DE1      -0.074400
      7 CAJ         -1.2300    -0.4030    -0.0100 c3         1 DE1      -0.073400
      8 CAH         -2.5260     0.4390    -0.0200 c3         1 DE1      -0.074400
      9 CAF         -3.8080    -0.4240    -0.0140 c3         1 DE1      -0.081400
     10 CAD         -5.0990     0.4180    -0.0240 c3         1 DE1       0.163600
     11 OAB         -6.2400    -0.4450    -0.0180 oh         1 DE1      -0.662000
     12 HAA1         7.3760     0.3200     0.0000 hc         1 DE1       0.031367
     13 HAA2         6.5420    -0.9650     0.9010 hc         1 DE1       0.031367
     14 HAA3         6.5450    -0.9830    -0.8780 hc         1 DE1       0.031367
     15 HAC1         5.2000     1.1660     0.8690 hc         1 DE1       0.036700
     16 HAC2         5.2040     1.1480    -0.8940 hc         1 DE1       0.036700
     17 HAE1         3.9290    -1.0200    -0.8750 hc         1 DE1       0.037200
     18 HAE2         3.9260    -1.0030     0.8880 hc         1 DE1       0.037200
     19 HAG1         2.6190     1.1440     0.8650 hc         1 DE1       0.036700
     20 HAG2         2.6230     1.1270    -0.8990 hc         1 DE1       0.036700
     21 HAI1         1.3530    -1.0420    -0.8810 hc         1 DE1       0.037700
     22 HAI2         1.3500    -1.0250     0.8830 hc         1 DE1       0.037700
     23 HAK1         0.0430     1.1220     0.8600 hc         1 DE1       0.036700
     24 HAK2         0.0470     1.1050    -0.9040 hc         1 DE1       0.036700
     25 HAJ1        -1.2230    -1.0640    -0.8850 hc         1 DE1       0.039700
     26 HAJ2        -1.2260    -1.0470     0.8790 hc         1 DE1       0.039700
     27 HAH1        -2.5330     1.1000     0.8560 hc         1 DE1       0.036700
     28 HAH2        -2.5300     1.0830    -0.9080 hc         1 DE1       0.036700
     29 HAF1        -3.8030    -1.0840    -0.8900 hc         1 DE1       0.052200
     30 HAF2        -3.8060    -1.0670     0.8740 hc         1 DE1       0.052200
     31 HAD1        -5.1130     1.0720     0.8580 h1         1 DE1       0.014700
     32 HAD2        -5.1100     1.0550    -0.9190 h1         1 DE1       0.014700
     33 HAB         -7.0350     0.1330    -0.0250 ho         1 DE1       0.442000
@<TRIPOS>BOND
     1     1     2 1   
     2     1    12 1   
     3     1    13 1   
     4     1    14 1   
     5     2     3 1   
     6     2    15 1   
     7     2    16 1   
     8     3     4 1   
     9     3    17 1   
    10     3    18 1   
    11     4     5 1   
    12     4    19 1   
    13     4    20 1   
    14     5     6 1   
    15     5    21 1   
    16     5    22 1   
    17     6     7 1   
    18     6    23 1   
    19     6    24 1   
    20     7     8 1   
    21     7    25 1   
    22     7    26 1   
    23     8     9 1   
    24     8    27 1   
    25     8    28 1   
    26     9    10 1   
    27     9    29 1   
    28     9    30 1   
    29    10    11 1   
    30    10    31 1   
    31    10    32 1   
    32    11    33 1   
@<TRIPOS>SUBSTRUCTURE
     1 DE1         1 TEMP              0 ****  ****    0 ROOT
