@<TRIPOS>MOLECULE
DE1
   33    32     1     0     0
SMALL
abcg2


@<TRIPOS>ATOM
      1 CAA          6.4120    -0.3310     0.0080 c3         1 DE1      -0.089100
      2 CAC          5.1410     0.5080    -0.0050 c3         1 DE1      -0.074400
      3 CAE          3.8760    -0.3410    -0.0010 c3         1 DE1      -0.075400
      4 CAG          2.5940     0.4820    -0.0120 c3         1 DE1      -0.074400
      5 CAI          1.3310    -0.3710    -0.0080 c3         1 DE1      -0.074400
      6 CAK          0.0490     0.4510    -0.0170 c3         1 DE1      -0.074400
      7 CAJ         -1.2130    -0.4020    -0.0130 c3         1 DE1      -0.073400
      8 CAH         -2.4930     0.4240    -0.0210 c3         1 DE1      -0.074400
      9 CAF         -3.7550    -0.4300    -0.0120 c3         1 DE1      -0.081400
     10 CAD         -5.0130     0.4160    -0.0240 c3         1 DE1       0.163600
     11 OAB         -6.1440    -0.4290    -0.0140 oh         1 DE1      -0.662000
     12 HAA1         7.3080     0.2910     0.0070 hc         1 DE1       0.031367
     13 HAA2         6.4530    -0.9670     0.8940 hc         1 DE1       0.031367
     14 HAA3         6.4620    -0.9830    -0.8670 hc         1 DE1       0.031367
     15 HAC1         5.1320     1.1750     0.8620 hc         1 DE1       0.036700
     16 HAC2         5.1380     1.1570    -0.8870 hc         1 DE1       0.036700
     17 HAE1         3.8860    -1.0100    -0.8700 hc         1 DE1       0.037200
     18 HAE2         3.8810    -0.9930     0.8810 hc         1 DE1       0.037200
     19 HAG1         2.5830     1.1490     0.8570 hc         1 DE1       0.036700
     20 HAG2         2.5890     1.1340    -0.8940 hc         1 DE1       0.036700
     21 HAI1         1.3410    -1.0380    -0.8780 hc         1 DE1       0.037700
     22 HAI2         1.3380    -1.0230     0.8730 hc         1 DE1       0.037700
     23 HAK1         0.0390     1.1170     0.8540 hc         1 DE1       0.036700
     24 HAK2         0.0420     1.1040    -0.8970 hc         1 DE1       0.036700
     25 HAJ1        -1.2040    -1.0680    -0.8830 hc         1 DE1       0.039700
     26 HAJ2        -1.2080    -1.0550     0.8680 hc         1 DE1       0.039700
     27 HAH1        -2.4980     1.0920     0.8470 hc         1 DE1       0.036700
     28 HAH2        -2.4980     1.0740    -0.9040 hc         1 DE1       0.036700
     29 HAF1        -3.7550    -1.0940    -0.8830 hc         1 DE1       0.052200
     30 HAF2        -3.7570    -1.0720     0.8750 hc         1 DE1       0.052200
     31 HAD1        -5.0060     1.0830     0.8490 h1         1 DE1       0.014700
     32 HAD2        -5.0040     1.0620    -0.9130 h1         1 DE1       0.014700
     33 HAB         -6.9310     0.1230    -0.0160 ho         1 DE1       0.442000
@<TRIPOS>BOND
     1     1     2 1   
     2     1    12 1   
     3     1    13 1   
     4     1    14 1   
     5     2     3 1   
     6     2    15 1   
     7     2    16 1   
     8     3     4 1   
     9     3    17 1   
    10     3    18 1   
    11     4     5 1   
    12     4    19 1   
    13     4    20 1   
    14     5     6 1   
    15     5    21 1   
    16     5    22 1   
    17     6     7 1   
    18     6    23 1   
    19     6    24 1   
    20     7     8 1   
    21     7    25 1   
    22     7    26 1   
    23     8     9 1   
    24     8    27 1   
    25     8    28 1   
    26     9    10 1   
    27     9    29 1   
    28     9    30 1   
    29    10    11 1   
    30    10    31 1   
    31    10    32 1   
    32    11    33 1   
@<TRIPOS>SUBSTRUCTURE
     1 DE1         1 TEMP              0 ****  ****    0 ROOT
