@<TRIPOS>MOLECULE
DE2
   15    14     1     0     0
SMALL
abcg2


@<TRIPOS>ATOM
      1 O2          -1.8030    -0.8980    -0.5040 o          1 DE2      -0.517100
      2 C2          -1.1810     0.0070     0.0070 c          1 DE2       0.537100
      3 C1          -1.7560     1.3690     0.2480 c3         1 DE2      -0.196100
      4 C3           0.2680    -0.2310     0.4080 c3         1 DE2       0.067300
      5 O3           0.6260    -1.5660     0.2140 oh         1 DE2      -0.633000
      6 C4           1.1850     0.7120    -0.3670 c3         1 DE2       0.150600
      7 O5           2.4970     0.5130     0.0930 oh         1 DE2      -0.639000
      8 H1          -2.8430     1.3390     0.2300 hc         1 DE2       0.067033
      9 H2          -1.4130     1.7830     1.1950 hc         1 DE2       0.067033
     10 H3          -1.4220     2.0480    -0.5400 hc         1 DE2       0.067033
     11 H4           0.3500     0.0210     1.4760 h1         1 DE2       0.082700
     12 H5          -0.0830    -1.9770    -0.3000 ho         1 DE2       0.461000
     13 H6           1.0880     0.4990    -1.4400 h1         1 DE2       0.020700
     14 H7           0.8580     1.7470    -0.2100 h1         1 DE2       0.020700
     15 H8           3.0890     1.0230    -0.4670 ho         1 DE2       0.443000
@<TRIPOS>BOND
     1     1     2 2   
     2     2     3 1   
     3     2     4 1   
     4     3     8 1   
     5     3     9 1   
     6     3    10 1   
     7     4     5 1   
     8     4     6 1   
     9     4    11 1   
    10     5    12 1   
    11     6     7 1   
    12     6    13 1   
    13     6    14 1   
    14     7    15 1   
@<TRIPOS>SUBSTRUCTURE
     1 DE2         1 TEMP              0 ****  ****    0 ROOT
