@<TRIPOS>MOLECULE
DE2
   15    14     1     0     0
SMALL
No Charge or Current Charge


@<TRIPOS>ATOM
      1 O2          -1.8310    -0.7660    -0.7130 o          1 DE2      -0.517100
      2 C2          -1.2170     0.0830    -0.0750 c          1 DE2       0.537100
      3 C1          -1.8980     1.3790     0.3700 c3         1 DE2      -0.196100
      4 C3           0.2400    -0.1520     0.4220 c3         1 DE2       0.067300
      5 O3           0.5720    -1.5680     0.5080 oh         1 DE2      -0.633000
      6 C4           1.2470     0.6020    -0.4910 c3         1 DE2       0.150600
      7 O5           2.5740     0.5570     0.0570 oh         1 DE2      -0.639000
      8 H1          -2.9400     1.4440     0.0390 hc         1 DE2       0.067033
      9 H2          -1.8150     1.4700     1.4590 hc         1 DE2       0.067033
     10 H3          -1.3080     2.2350     0.0210 hc         1 DE2       0.067033
     11 H4           0.3000     0.3020     1.4200 h1         1 DE2       0.082700
     12 H5           0.2090    -2.0020    -0.2980 ho         1 DE2       0.461000
     13 H6           1.2320     0.1550    -1.4940 h1         1 DE2       0.020700
     14 H7           0.9270     1.6480    -0.5940 h1         1 DE2       0.020700
     15 H8           3.1680     1.0020    -0.5880 ho         1 DE2       0.443000
@<TRIPOS>BOND
     1     1     2 2   
     2     2     3 1   
     3     2     4 1   
     4     3     8 1   
     5     3     9 1   
     6     3    10 1   
     7     4     5 1   
     8     4     6 1   
     9     4    11 1   
    10     5    12 1   
    11     6     7 1   
    12     6    13 1   
    13     6    14 1   
    14     7    15 1   
@<TRIPOS>SUBSTRUCTURE
     1 DE2         1 TEMP              0 ****  ****    0 ROOT
