@<TRIPOS>MOLECULE
DE3
   31    31     1     0     0
SMALL
bcc


@<TRIPOS>ATOM
      1 CAA          0.5980    -0.0660    -0.4270 ca         1 DE3      -0.136600
      2 CAB          1.5570    -0.8910     0.1530 ca         1 DE3      -0.091000
      3 CAC          0.9650     1.1860    -0.9060 ca         1 DE3      -0.107000
      4 CAD          2.8770    -0.4730     0.2970 ca         1 DE3      -0.080300
      5 CAE          3.2270     0.7890    -0.1830 ca         1 DE3      -0.116000
      6 CAF          2.2830     1.6060    -0.7860 ca         1 DE3      -0.133000
      7 CAG          3.9040    -1.3720     0.9210 c3         1 DE3      -0.046800
      8 CAH         -0.7860    -0.6060    -0.6160 c          1 DE3       0.678700
      9 CAI         -2.1220     2.4650     0.4850 c3         1 DE3      -0.110600
     10 CAJ         -3.1620    -0.4680    -0.2320 c3         1 DE3       0.099500
     11 CAK         -1.6660     1.0950     0.9610 c3         1 DE3       0.099500
     12 CAL         -3.5080    -1.5920     0.7340 c3         1 DE3      -0.110600
     13 NAM         -1.8130     0.0500    -0.0430 n          1 DE3      -0.471800
     14 OAN         -0.9430    -1.6190    -1.2900 o          1 DE3      -0.598100
     15 HAB          1.2700    -1.8710     0.5180 ha         1 DE3       0.141000
     16 HAC          0.2360     1.8290    -1.3810 ha         1 DE3       0.136000
     17 HAE          4.2500     1.1330    -0.0860 ha         1 DE3       0.130000
     18 HAF          2.5730     2.5780    -1.1630 ha         1 DE3       0.132000
     19 HAG          4.4480    -1.9310     0.1570 hc         1 DE3       0.043700
     20 HAGA         4.6410    -0.8030     1.4880 hc         1 DE3       0.043700
     21 HAGB         3.4470    -2.0980     1.5910 hc         1 DE3       0.043700
     22 HAI         -3.1670     2.4590     0.1730 hc         1 DE3       0.040533
     23 HAIA        -2.0250     3.1870     1.2950 hc         1 DE3       0.040533
     24 HAJ         -3.2760    -0.8050    -1.2610 h1         1 DE3       0.051700
     25 HAJA        -3.8570     0.3620    -0.1000 h1         1 DE3       0.051700
     26 HAK         -0.6300     1.1380     1.2890 h1         1 DE3       0.051700
     27 HAL         -4.5320    -1.9270     0.5670 hc         1 DE3       0.040533
     28 HALA        -2.8470    -2.4470     0.5960 hc         1 DE3       0.040533
     29 HALB        -3.4330    -1.2640     1.7720 hc         1 DE3       0.040533
     30 H16         -1.5240     2.8170    -0.3550 hc         1 DE3       0.040533
     31 H17         -2.2460     0.7990     1.8400 h1         1 DE3       0.051700
@<TRIPOS>BOND
     1     1     2 ar  
     2     1     3 ar  
     3     1     8 1   
     4     2     4 ar  
     5     2    15 1   
     6     3     6 ar  
     7     3    16 1   
     8     4     5 ar  
     9     4     7 1   
    10     5     6 ar  
    11     5    17 1   
    12     6    18 1   
    13     7    19 1   
    14     7    20 1   
    15     7    21 1   
    16     8    13 1   
    17     8    14 2   
    18     9    11 1   
    19     9    22 1   
    20     9    23 1   
    21     9    30 1   
    22    10    12 1   
    23    10    13 1   
    24    10    24 1   
    25    10    25 1   
    26    11    13 1   
    27    11    26 1   
    28    11    31 1   
    29    12    27 1   
    30    12    28 1   
    31    12    29 1   
@<TRIPOS>SUBSTRUCTURE
     1 DE3         1 TEMP              0 ****  ****    0 ROOT
