@<TRIPOS>MOLECULE
DE3
   31    31     1     0     0
SMALL
No Charge or Current Charge


@<TRIPOS>ATOM
      1 CAA          0.7600    -0.2380    -0.2380 ca         1 DE3      -0.136600
      2 CAB          1.8420    -1.0430     0.1820 ca         1 DE3      -0.073000
      3 CAC          1.0240     1.0790    -0.6810 ca         1 DE3      -0.089000
      4 CAD          3.1550    -0.5350     0.2020 ca         1 DE3      -0.080300
      5 CAE          3.3960     0.7850    -0.2200 ca         1 DE3      -0.098000
      6 CAF          2.3330     1.5870    -0.6650 ca         1 DE3      -0.115000
      7 CAG          4.3070    -1.4130     0.6690 c3         1 DE3      -0.046800
      8 CAH         -0.6380    -0.8250    -0.2740 c          1 DE3       0.611700
      9 CAI         -2.6080     2.3130     0.7040 c3         1 DE3      -0.110600
     10 CAJ         -3.0940    -0.4360    -0.5250 c3         1 DE3       0.099500
     11 CAK         -1.7050     1.0880     0.9560 c3         1 DE3       0.099500
     12 CAL         -3.9160    -1.0820     0.6090 c3         1 DE3      -0.110600
     13 NAM         -1.7470     0.0450    -0.1110 n          1 DE3      -0.404800
     14 OAN         -0.7980    -2.0120    -0.5340 o          1 DE3      -0.598100
     15 HAB          1.6600    -2.0660     0.5030 ha         1 DE3       0.123000
     16 HAC          0.2180     1.7070    -1.0540 ha         1 DE3       0.118000
     17 HAE          4.4070     1.1860    -0.2140 ha         1 DE3       0.112000
     18 HAF          2.5250     2.6020    -1.0050 ha         1 DE3       0.114000
     19 HAG          4.7120    -2.0000    -0.1640 hc         1 DE3       0.043700
     20 HAGA         5.1260    -0.8130     1.0850 hc         1 DE3       0.043700
     21 HAGB         3.9850    -2.1140     1.4480 hc         1 DE3       0.043700
     22 HAI         -3.6690     2.0390     0.7070 hc         1 DE3       0.040533
     23 HAIA        -2.4540     3.0610     1.4910 hc         1 DE3       0.040533
     24 HAJ         -2.9870    -1.1620    -1.3410 h1         1 DE3       0.051700
     25 HAJA        -3.6610     0.4070    -0.9410 h1         1 DE3       0.051700
     26 HAK         -0.6820     1.4460     1.1090 h1         1 DE3       0.051700
     27 HAL         -4.8680    -1.4580     0.2170 hc         1 DE3       0.040533
     28 HALA        -3.3700    -1.9250     1.0500 hc         1 DE3       0.040533
     29 HALB        -4.1390    -0.3590     1.4020 hc         1 DE3       0.040533
     30 H16         -2.3670     2.7770    -0.2600 hc         1 DE3       0.040533
     31 H17         -2.0080     0.6220     1.9020 h1         1 DE3       0.051700
@<TRIPOS>BOND
     1     1     2 ar  
     2     1     3 ar  
     3     1     8 1   
     4     2     4 ar  
     5     2    15 1   
     6     3     6 ar  
     7     3    16 1   
     8     4     5 ar  
     9     4     7 1   
    10     5     6 ar  
    11     5    17 1   
    12     6    18 1   
    13     7    19 1   
    14     7    20 1   
    15     7    21 1   
    16     8    13 1   
    17     8    14 2   
    18     9    11 1   
    19     9    22 1   
    20     9    23 1   
    21     9    30 1   
    22    10    12 1   
    23    10    13 1   
    24    10    24 1   
    25    10    25 1   
    26    11    13 1   
    27    11    26 1   
    28    11    31 1   
    29    12    27 1   
    30    12    28 1   
    31    12    29 1   
@<TRIPOS>SUBSTRUCTURE
     1 DE3         1 TEMP              0 ****  ****    0 ROOT
