@<TRIPOS>MOLECULE
DE5
   17    17     1     0     0
SMALL
No Charge or Current Charge


@<TRIPOS>ATOM
      1 C4          -1.5520     0.0890    -0.0980 c          1 DE5       0.599100
      2 C5          -2.9300    -0.6590    -0.0810 c3         1 DE5       0.080800
      3 N1           1.7610    -1.3860     0.1110 nc         1 DE5      -0.711000
      4 N2          -0.4580    -0.7390    -0.0030 ns         1 DE5      -0.480400
      5 C3           0.8700    -0.4150     0.0120 cd         1 DE5       0.535300
      6 N3          -4.1540     0.1420     0.2790 n8         1 DE5      -0.973200
      7 C2           3.0330    -0.8690     0.1090 cc         1 DE5       0.302900
      8 C1           3.1260     0.4950     0.0100 cd         1 DE5      -0.312000
      9 S1           1.5350     1.2230    -0.0910 ss         1 DE5       0.053600
     10 O1          -1.4650     1.3060    -0.1930 o          1 DE5      -0.545100
     11 H1          -3.0720    -1.0920    -1.0810 h1         1 DE5       0.049700
     12 H2          -2.8470    -1.4940     0.6280 h1         1 DE5       0.049700
     13 H3          -0.6760    -1.7220     0.0660 hn         1 DE5       0.337500
     14 H4          -4.2640     0.9150    -0.3920 hn         1 DE5       0.406500
     15 H5          -4.9970    -0.4290     0.1330 hn         1 DE5       0.406500
     16 H7           3.8650    -1.5580     0.1850 h4         1 DE5       0.039100
     17 H8           4.0210     1.1030    -0.0090 h4         1 DE5       0.160000
@<TRIPOS>BOND
     1     1     2 1   
     2     1     4 1   
     3     1    10 2   
     4     2     6 1   
     5     2    11 1   
     6     2    12 1   
     7     3     5 2   
     8     3     7 1   
     9     4     5 1   
    10     4    13 1   
    11     5     9 1   
    12     6    14 1   
    13     6    15 1   
    14     7     8 2   
    15     7    16 1   
    16     8     9 1   
    17     8    17 1   
@<TRIPOS>SUBSTRUCTURE
     1 DE5         1 TEMP              0 ****  ****    0 ROOT
