@<TRIPOS>MOLECULE
DE5
   17    17     1     0     0
SMALL
abcg2


@<TRIPOS>ATOM
      1 C4          -1.5500     0.0040     0.0560 c          1 DE5       0.599100
      2 C5          -2.9120    -0.6520     0.0150 c3         1 DE5       0.080800
      3 N1           1.7580    -1.4080    -0.0380 nc         1 DE5      -0.711000
      4 N2          -0.5090    -0.8760     0.0100 ns         1 DE5      -0.480400
      5 C3           0.8170    -0.5210     0.0130 cd         1 DE5       0.535300
      6 N3          -3.9690     0.3280     0.0370 n8         1 DE5      -0.973200
      7 C2           2.9850    -0.8050    -0.0260 cc         1 DE5       0.302900
      8 C1           2.9770     0.5470     0.0370 cd         1 DE5      -0.312000
      9 S1           1.3520     1.1240     0.0820 ss         1 DE5       0.053600
     10 O1          -1.3610     1.2020     0.1100 o          1 DE5      -0.545100
     11 H1          -2.9250    -1.3330    -0.8480 h1         1 DE5       0.049700
     12 H2          -2.9950    -1.2920     0.8980 h1         1 DE5       0.049700
     13 H3          -0.6910    -1.8700    -0.0420 hn         1 DE5       0.337500
     14 H4          -4.0160     0.8060    -0.8530 hn         1 DE5       0.406500
     15 H5          -4.8530    -0.1520     0.1430 hn         1 DE5       0.406500
     16 H7           3.8740    -1.4180    -0.0670 h4         1 DE5       0.039100
     17 H8           3.8150     1.2240     0.0580 h4         1 DE5       0.160000
@<TRIPOS>BOND
     1     1     2 1   
     2     1     4 1   
     3     1    10 2   
     4     2     6 1   
     5     2    11 1   
     6     2    12 1   
     7     3     5 2   
     8     3     7 1   
     9     4     5 1   
    10     4    13 1   
    11     5     9 1   
    12     6    14 1   
    13     6    15 1   
    14     7     8 2   
    15     7    16 1   
    16     8     9 1   
    17     8    17 1   
@<TRIPOS>SUBSTRUCTURE
     1 DE5         1 TEMP              0 ****  ****    0 ROOT
