@<TRIPOS>MOLECULE
DE6
   98    99     1     0     0
SMALL
No Charge or Current Charge


@<TRIPOS>ATOM
      1 C10         -5.0820     5.7320   -18.3030 c3         1 DE6       0.164500
      2 C15         -6.3950     4.9920   -18.6580 c3         1 DE6      -0.083400
      3 C17         -8.8100     4.4350   -17.9180 c3         1 DE6      -0.100400
      4 C20         -9.6360     5.6650   -14.6160 c          1 DE6       0.583100
      5 C22         -8.8100     5.4250   -13.3140 c3         1 DE6       0.028700
      6 C26         -7.7360     5.1590    -8.8130 c3         1 DE6       0.151800
      7 C01         -0.0580     8.5630   -16.1650 ca         1 DE6      -0.102000
      8 C02         -1.4280     8.8820   -16.2340 ca         1 DE6      -0.104300
      9 C03         -1.9270     9.9340   -17.2120 c3         1 DE6       0.145300
     10 C05         -3.6300    10.0810   -19.0540 c          1 DE6       0.600100
     11 C06         -4.6230     9.2730   -19.9560 c3         1 DE6       0.044700
     12 C07         -6.0340     9.9100   -20.0210 c3         1 DE6      -0.094100
     13 C09         -5.2120     7.2940   -18.4410 c          1 DE6       0.581100
     14 C12         -2.7050     5.5750   -19.1290 c2         1 DE6       0.810100
     15 C16         -7.5740     5.3450   -17.7220 c3         1 DE6      -0.074400
     16 C18         -9.9700     4.7450   -16.9480 c3         1 DE6       0.099000
     17 C23         -8.8350     6.6310   -12.3350 c3         1 DE6      -0.080400
     18 C25         -8.5090     5.2620   -10.1440 c3         1 DE6      -0.085400
     19 C29         -6.9850     3.7570   -13.9360 c          1 DE6       0.592100
     20 C31         -5.4430     3.5520   -14.0660 c3         1 DE6       0.023700
     21 C32         -4.9570     2.3040   -13.2810 c3         1 DE6      -0.088400
     22 C33         -3.4590     1.9690   -13.4780 c3         1 DE6      -0.075400
     23 C34         -3.0280     0.6740   -12.7530 c3         1 DE6      -0.079400
     24 C35         -1.5340     0.3470   -12.9510 c3         1 DE6       0.150800
     25 C38         -3.6240     5.3020   -14.3640 c          1 DE6       0.614100
     26 C40         -2.8940     6.4450   -13.6500 c3         1 DE6      -0.113100
     27 C41         -1.8950     7.2030   -14.5180 ca         1 DE6      -0.082300
     28 C42         -2.3410     8.2030   -15.4020 ca         1 DE6      -0.076000
     29 C43         -0.5240     6.8920   -14.4570 ca         1 DE6      -0.097000
     30 C44          0.3920     7.5730   -15.2760 ca         1 DE6      -0.117000
     31 N04         -2.8380     9.3510   -18.1920 ns         1 DE6      -0.501900
     32 N08         -4.6800     7.8340   -19.6000 ns         1 DE6      -0.508900
     33 N11         -3.9470     5.1290   -19.0840 nu         1 DE6      -0.944400
     34 N13         -2.3390     6.0910   -17.9930 nv         1 DE6      -1.084200
     35 N14         -2.1490     5.7090   -20.2240 n2         1 DE6      -0.918100
     36 N19         -9.5270     4.6630   -15.5550 ns         1 DE6      -0.498900
     37 N27         -8.2190     4.0350    -7.9930 n8         1 DE6      -0.993200
     38 N28         -7.4120     5.0340   -13.6330 ns         1 DE6      -0.495900
     39 N36         -1.1540    -0.8940   -12.2520 n8         1 DE6      -0.995200
     40 N37         -4.6750     4.7590   -13.6540 ns         1 DE6      -0.516900
     41 O21        -10.2870     6.6800   -14.8280 o          1 DE6      -0.594100
     42 O30         -7.7890     2.8470   -14.0810 o          1 DE6      -0.613100
     43 O39         -3.3020     4.8880   -15.4690 o          1 DE6      -0.608100
     44 O45         -5.6830     7.9980   -17.5570 o          1 DE6      -0.598100
     45 O46         -3.5680    11.3040   -19.0800 o          1 DE6      -0.608100
     46 H1          -4.9020     5.5620   -17.2350 h1         1 DE6       0.095700
     47 H2          -6.6740     5.2090   -19.6970 hc         1 DE6       0.048200
     48 H3          -6.2150     3.9120   -18.5930 hc         1 DE6       0.048200
     49 H4          -9.1740     4.5310   -18.9490 hc         1 DE6       0.043700
     50 H5          -8.5120     3.3880   -17.7840 hc         1 DE6       0.043700
     51 H6          -9.2930     4.5740   -12.8170 h1         1 DE6       0.086700
     52 H7          -6.9640     6.3050   -11.2610 hc         1 DE6       0.035200
     53 H8          -8.0960     7.3660   -10.4410 hc         1 DE6       0.035200
     54 H9          -6.6670     5.0110    -9.0170 h1         1 DE6       0.022700
     55 H10         -7.8570     6.0890    -8.2400 h1         1 DE6       0.022700
     56 H11          0.6580     9.0780   -16.8020 ha         1 DE6       0.115000
     57 H12         -1.0820    10.3930   -17.7420 h1         1 DE6       0.062700
     58 H13         -2.4510    10.7240   -16.6580 h1         1 DE6       0.062700
     59 H14         -4.1970     9.3190   -20.9660 h1         1 DE6       0.062700
     60 H15         -5.9800    10.9140   -20.4580 hc         1 DE6       0.053367
     61 H16         -6.7010     9.3050   -20.6460 hc         1 DE6       0.053367
     62 H17         -6.4800    10.0010   -19.0240 hc         1 DE6       0.053367
     63 H18         -7.2250     5.2690   -16.6850 hc         1 DE6       0.058700
     64 H19         -7.8730     6.3890   -17.8800 hc         1 DE6       0.058700
     65 H20        -10.3590     5.7500   -17.1610 h1         1 DE6       0.060200
     66 H21        -10.7850     4.0260   -17.1050 h1         1 DE6       0.060200
     67 H22         -8.4480     7.5170   -12.8540 hc         1 DE6       0.064200
     68 H23         -9.8770     6.8570   -12.0760 hc         1 DE6       0.064200
     69 H24         -9.5790     5.3840    -9.9340 hc         1 DE6       0.052200
     70 H25         -8.3910     4.3210   -10.6930 hc         1 DE6       0.052200
     71 H26         -5.2710     3.3760   -15.1360 h1         1 DE6       0.107700
     72 H27         -5.1590     2.4500   -12.2120 hc         1 DE6       0.063200
     73 H28         -5.5500     1.4360   -13.5960 hc         1 DE6       0.063200
     74 H29         -3.2500     1.8680   -14.5500 hc         1 DE6       0.039700
     75 H30         -2.8440     2.7990   -13.1080 hc         1 DE6       0.039700
     76 H31         -3.2390     0.7750   -11.6810 hc         1 DE6       0.049200
     77 H32         -3.6320    -0.1640   -13.1240 hc         1 DE6       0.049200
     78 H33         -1.3200     0.2270   -14.0220 h1         1 DE6       0.025700
     79 H34         -0.9190     1.1720   -12.5630 h1         1 DE6       0.025700
     80 H35         -2.4340     6.0240   -12.7490 hc         1 DE6       0.069700
     81 H36         -3.6460     7.1040   -13.2010 hc         1 DE6       0.069700
     82 H37         -3.4010     8.4410   -15.4590 ha         1 DE6       0.140000
     83 H38         -0.1670     6.1190   -13.7800 ha         1 DE6       0.109000
     84 H39          1.4510     7.3280   -15.2260 ha         1 DE6       0.115000
     85 H40         -2.9310     8.3400   -18.2240 hn         1 DE6       0.339500
     86 H41         -4.2360     7.1630   -20.2200 hn         1 DE6       0.327500
     87 H42         -4.1870     4.6800   -19.9610 hn         1 DE6       0.503000
     88 H43         -2.8180     5.6130   -17.2360 hn         1 DE6       0.471000
     89 H44         -1.3400     6.1090   -17.8660 hn         1 DE6       0.471000
     90 H45         -1.2700     6.2080   -20.0550 hn         1 DE6       0.382400
     91 H46         -8.9810     3.8530   -15.2690 hn         1 DE6       0.325500
     92 H47         -7.7220     4.0390    -7.0940 hn         1 DE6       0.392500
     93 H48         -9.1960     4.2110    -7.7270 hn         1 DE6       0.392500
     94 H50         -6.6910     5.7440   -13.5850 hn         1 DE6       0.332500
     95 H51         -0.1420    -1.0410   -12.3580 hn         1 DE6       0.392000
     96 H52         -1.2720    -0.7570   -11.2410 hn         1 DE6       0.392000
     97 H54         -4.8120     5.1200   -12.7160 hn         1 DE6       0.310500
     98 C24         -8.0270     6.4390   -11.0250 c3         1 DE6      -0.071400
@<TRIPOS>BOND
     1     1     2 1   
     2     1    13 1   
     3     1    33 1   
     4     1    46 1   
     5     2    15 1   
     6     2    47 1   
     7     2    48 1   
     8     3    15 1   
     9     3    16 1   
    10     3    49 1   
    11     3    50 1   
    12     4     5 1   
    13     4    36 1   
    14     4    41 2   
    15     5    17 1   
    16     5    38 1   
    17     5    51 1   
    18     6    18 1   
    19     6    37 1   
    20     6    54 1   
    21     6    55 1   
    22     7     8 ar  
    23     7    30 ar  
    24     7    56 1   
    25     8     9 1   
    26     8    28 ar  
    27     9    31 1   
    28     9    57 1   
    29     9    58 1   
    30    10    11 1   
    31    10    31 1   
    32    10    45 2   
    33    11    12 1   
    34    11    32 1   
    35    11    59 1   
    36    12    60 1   
    37    12    61 1   
    38    12    62 1   
    39    13    32 1   
    40    13    44 2   
    41    14    33 1   
    42    14    34 1   
    43    14    35 2   
    44    15    63 1   
    45    15    64 1   
    46    16    36 1   
    47    16    65 1   
    48    16    66 1   
    49    17    67 1   
    50    17    68 1   
    51    17    98 1   
    52    18    69 1   
    53    18    70 1   
    54    18    98 1   
    55    19    20 1   
    56    19    38 1   
    57    19    42 2   
    58    20    21 1   
    59    20    40 1   
    60    20    71 1   
    61    21    22 1   
    62    21    72 1   
    63    21    73 1   
    64    22    23 1   
    65    22    74 1   
    66    22    75 1   
    67    23    24 1   
    68    23    76 1   
    69    23    77 1   
    70    24    39 1   
    71    24    78 1   
    72    24    79 1   
    73    25    26 1   
    74    25    40 1   
    75    25    43 2   
    76    26    27 1   
    77    26    80 1   
    78    26    81 1   
    79    27    28 ar  
    80    27    29 ar  
    81    28    82 1   
    82    29    30 ar  
    83    29    83 1   
    84    30    84 1   
    85    31    85 1   
    86    32    86 1   
    87    33    87 1   
    88    34    88 1   
    89    34    89 1   
    90    35    90 1   
    91    36    91 1   
    92    37    92 1   
    93    37    93 1   
    94    38    94 1   
    95    39    95 1   
    96    39    96 1   
    97    40    97 1   
    98    52    98 1   
    99    53    98 1   
@<TRIPOS>SUBSTRUCTURE
     1 DE6         1 TEMP              0 ****  ****    0 ROOT
