@<TRIPOS>MOLECULE
DE6
   98    99     1     0     0
SMALL
bcc


@<TRIPOS>ATOM
      1 C10         -5.1600     5.7220   -18.4620 c3         1 DE6       0.164500
      2 C15         -6.5750     5.2240   -18.7770 c3         1 DE6      -0.083400
      3 C17         -8.9250     4.8710   -17.9350 c3         1 DE6      -0.100400
      4 C20         -9.1800     6.0000   -14.7320 c          1 DE6       0.650100
      5 C22         -8.5880     5.4740   -13.4200 c3         1 DE6       0.028700
      6 C26         -8.0050     4.3040    -9.1080 c3         1 DE6       0.151800
      7 C01          0.0760     8.1780   -16.6030 ca         1 DE6      -0.120000
      8 C02         -1.2250     8.6610   -16.6590 ca         1 DE6      -0.104300
      9 C03         -1.6180     9.6950   -17.6830 c3         1 DE6       0.145300
     10 C05         -3.8200     9.9800   -18.7350 c          1 DE6       0.667100
     11 C06         -4.8730     9.3340   -19.6440 c3         1 DE6       0.044700
     12 C07         -6.2480     9.9670   -19.4770 c3         1 DE6      -0.094100
     13 C09         -5.1400     7.2500   -18.3780 c          1 DE6       0.648100
     14 C12         -2.9020     5.4040   -19.4950 c2         1 DE6       0.810100
     15 C16         -7.6110     5.6140   -17.7320 c3         1 DE6      -0.074400
     16 C18        -10.0070     5.2660   -16.9360 c3         1 DE6       0.099000
     17 C23         -8.7120     6.4790   -12.2810 c3         1 DE6      -0.080400
     18 C25         -8.6390     4.6980   -10.4340 c3         1 DE6      -0.085400
     19 C29         -6.7560     3.8820   -13.8340 c          1 DE6       0.659100
     20 C31         -5.2380     3.6920   -13.8790 c3         1 DE6       0.023700
     21 C32         -4.8230     2.5720   -12.9200 c3         1 DE6      -0.088400
     22 C33         -3.3360     2.2530   -12.9880 c3         1 DE6      -0.075400
     23 C34         -2.9570     1.0810   -12.0920 c3         1 DE6      -0.079400
     24 C35         -1.4700     0.7660   -12.1390 c3         1 DE6       0.150800
     25 C38         -3.6020     5.4490   -14.4620 c          1 DE6       0.681100
     26 C40         -2.8730     6.6550   -13.8960 c3         1 DE6      -0.113100
     27 C41         -1.8330     7.1950   -14.8300 ca         1 DE6      -0.082300
     28 C42         -2.1690     8.1610   -15.7670 ca         1 DE6      -0.094000
     29 C43         -0.5240     6.7220   -14.7850 ca         1 DE6      -0.115000
     30 C44          0.4270     7.2130   -15.6660 ca         1 DE6      -0.135000
     31 N04         -2.7270     9.2430   -18.4930 ns         1 DE6      -0.568900
     32 N08         -4.8940     7.8920   -19.5330 ns         1 DE6      -0.575900
     33 N11         -4.2520     5.1820   -19.4430 nu         1 DE6      -0.889200
     34 N13         -2.3810     6.0650   -18.4030 nv         1 DE6      -0.973800
     35 N14         -2.2550     5.0530   -20.5450 n2         1 DE6      -0.918100
     36 N19         -9.6120     5.0370   -15.5610 ns         1 DE6      -0.565900
     37 N27         -8.5780     3.0660    -8.6000 n8         1 DE6      -0.882800
     38 N28         -7.1960     5.1340   -13.6420 ns         1 DE6      -0.562900
     39 N36         -1.1480    -0.3640   -11.2810 n8         1 DE6      -0.884800
     40 N37         -4.5100     4.9120   -13.6140 ns         1 DE6      -0.583900
     41 O21         -9.2180     7.1930   -14.9890 o          1 DE6      -0.594100
     42 O30         -7.4980     2.9170   -13.9510 o          1 DE6      -0.613100
     43 O39         -3.4010     5.0110   -15.5810 o          1 DE6      -0.608100
     44 O45         -5.3570     7.8300   -17.3270 o          1 DE6      -0.598100
     45 O46         -3.9600    11.1320   -18.3480 o          1 DE6      -0.608100
     46 H1          -4.9060     5.3630   -17.4610 h1         1 DE6       0.095700
     47 H2          -6.8810     5.5820   -19.7660 hc         1 DE6       0.048200
     48 H3          -6.5240     4.1330   -18.8440 hc         1 DE6       0.048200
     49 H4          -9.3110     5.0620   -18.9410 hc         1 DE6       0.043700
     50 H5          -8.7500     3.7920   -17.8730 hc         1 DE6       0.043700
     51 H6          -9.1030     4.5510   -13.1460 h1         1 DE6       0.086700
     52 H7          -6.9930     5.9080   -11.1070 hc         1 DE6       0.035200
     53 H8          -8.2120     6.7920   -10.2300 hc         1 DE6       0.035200
     54 H9          -6.9340     4.1460    -9.2600 h1         1 DE6       0.022700
     55 H10         -8.0920     5.1470    -8.4070 h1         1 DE6       0.022700
     56 H11          0.8200     8.5530   -17.2960 ha         1 DE6       0.133000
     57 H12         -0.7560     9.9280   -18.3150 h1         1 DE6       0.062700
     58 H13         -1.9080    10.6240   -17.1930 h1         1 DE6       0.062700
     59 H14         -4.5290     9.5390   -20.6620 h1         1 DE6       0.062700
     60 H15         -6.2130    11.0320   -19.6960 hc         1 DE6       0.053367
     61 H16         -6.9450     9.5060   -20.1760 hc         1 DE6       0.053367
     62 H17         -6.6340     9.8330   -18.4680 hc         1 DE6       0.053367
     63 H18         -7.2150     5.3880   -16.7380 hc         1 DE6       0.058700
     64 H19         -7.7920     6.6900   -17.7500 hc         1 DE6       0.058700
     65 H20        -10.2560     6.3210   -17.0450 h1         1 DE6       0.060200
     66 H21        -10.9170     4.6980   -17.1360 h1         1 DE6       0.060200
     67 H22         -8.2600     7.4280   -12.5820 hc         1 DE6       0.064200
     68 H23         -9.7740     6.6810   -12.1210 hc         1 DE6       0.064200
     69 H24         -9.7230     4.7970   -10.3030 hc         1 DE6       0.052200
     70 H25         -8.4880     3.8810   -11.1450 hc         1 DE6       0.052200
     71 H26         -4.9940     3.3860   -14.8990 h1         1 DE6       0.107700
     72 H27         -5.0940     2.8500   -11.8950 hc         1 DE6       0.063200
     73 H28         -5.4000     1.6800   -13.1640 hc         1 DE6       0.063200
     74 H29         -3.0580     2.0290   -14.0230 hc         1 DE6       0.039700
     75 H30         -2.7520     3.1310   -12.6950 hc         1 DE6       0.039700
     76 H31         -3.2470     1.3060   -11.0590 hc         1 DE6       0.049200
     77 H32         -3.5200     0.1890   -12.3850 hc         1 DE6       0.049200
     78 H33         -1.1940     0.5060   -13.1650 h1         1 DE6       0.025700
     79 H34         -0.9070     1.6790   -11.8930 h1         1 DE6       0.025700
     80 H35         -2.4270     6.3750   -12.9380 hc         1 DE6       0.069700
     81 H36         -3.6190     7.4220   -13.6690 hc         1 DE6       0.069700
     82 H37         -3.1930     8.5130   -15.8210 ha         1 DE6       0.158000
     83 H38         -0.2480     5.9680   -14.0570 ha         1 DE6       0.127000
     84 H39          1.4420     6.8400   -15.6290 ha         1 DE6       0.133000
     85 H40         -2.7140     8.2680   -18.7690 hn         1 DE6       0.339500
     86 H41         -4.7460     7.3510   -20.3690 hn         1 DE6       0.327500
     87 H42         -4.6420     4.7650   -20.2730 hn         1 DE6       0.447800
     88 H43         -2.7650     5.8600   -17.4870 hn         1 DE6       0.415800
     89 H44         -1.3730     6.0860   -18.3710 hn         1 DE6       0.415800
     90 H45         -1.2640     5.2290   -20.4310 hn         1 DE6       0.382400
     91 H46         -9.4840     4.0770   -15.2780 hn         1 DE6       0.325500
     92 H47         -8.1000     2.7990    -7.7490 hn         1 DE6       0.337300
     93 H48         -9.5390     3.2310    -8.3280 hn         1 DE6       0.337300
     94 H50         -6.5230     5.8850   -13.6300 hn         1 DE6       0.332500
     95 H51         -0.1640    -0.5840   -11.3640 hn         1 DE6       0.336800
     96 H52         -1.2850    -0.0980   -10.3130 hn         1 DE6       0.336800
     97 H54         -4.4930     5.2380   -12.6580 hn         1 DE6       0.310500
     98 C24         -8.0760     6.0050   -10.9770 c3         1 DE6      -0.071400
@<TRIPOS>BOND
     1     1     2 1   
     2     1    13 1   
     3     1    33 1   
     4     1    46 1   
     5     2    15 1   
     6     2    47 1   
     7     2    48 1   
     8     3    15 1   
     9     3    16 1   
    10     3    49 1   
    11     3    50 1   
    12     4     5 1   
    13     4    36 1   
    14     4    41 2   
    15     5    17 1   
    16     5    38 1   
    17     5    51 1   
    18     6    18 1   
    19     6    37 1   
    20     6    54 1   
    21     6    55 1   
    22     7     8 ar  
    23     7    30 ar  
    24     7    56 1   
    25     8     9 1   
    26     8    28 ar  
    27     9    31 1   
    28     9    57 1   
    29     9    58 1   
    30    10    11 1   
    31    10    31 1   
    32    10    45 2   
    33    11    12 1   
    34    11    32 1   
    35    11    59 1   
    36    12    60 1   
    37    12    61 1   
    38    12    62 1   
    39    13    32 1   
    40    13    44 2   
    41    14    33 1   
    42    14    34 1   
    43    14    35 2   
    44    15    63 1   
    45    15    64 1   
    46    16    36 1   
    47    16    65 1   
    48    16    66 1   
    49    17    67 1   
    50    17    68 1   
    51    17    98 1   
    52    18    69 1   
    53    18    70 1   
    54    18    98 1   
    55    19    20 1   
    56    19    38 1   
    57    19    42 2   
    58    20    21 1   
    59    20    40 1   
    60    20    71 1   
    61    21    22 1   
    62    21    72 1   
    63    21    73 1   
    64    22    23 1   
    65    22    74 1   
    66    22    75 1   
    67    23    24 1   
    68    23    76 1   
    69    23    77 1   
    70    24    39 1   
    71    24    78 1   
    72    24    79 1   
    73    25    26 1   
    74    25    40 1   
    75    25    43 2   
    76    26    27 1   
    77    26    80 1   
    78    26    81 1   
    79    27    28 ar  
    80    27    29 ar  
    81    28    82 1   
    82    29    30 ar  
    83    29    83 1   
    84    30    84 1   
    85    31    85 1   
    86    32    86 1   
    87    33    87 1   
    88    34    88 1   
    89    34    89 1   
    90    35    90 1   
    91    36    91 1   
    92    37    92 1   
    93    37    93 1   
    94    38    94 1   
    95    39    95 1   
    96    39    96 1   
    97    40    97 1   
    98    52    98 1   
    99    53    98 1   
@<TRIPOS>SUBSTRUCTURE
     1 DE6         1 TEMP              0 ****  ****    0 ROOT
