@<TRIPOS>MOLECULE
DE7
   35    36     1     0     0
SMALL
abcg2


@<TRIPOS>ATOM
      1 C1         111.1950     8.5050    13.5060 ca         1 DE7      -0.055000
      2 C15        107.9130     8.5020    17.1670 c6         1 DE7       0.217500
      3 C16        108.8120     8.8820    18.3500 c6         1 DE7      -0.105400
      4 C17        108.1620     8.4970    19.6800 c6         1 DE7      -0.071400
      5 C18        106.7540     9.0750    19.7760 c6         1 DE7       0.155800
      6 C2         111.7430     7.2640    13.8480 ca         1 DE7      -0.116300
      7 C20        106.5140     9.0860    17.3610 c6         1 DE7       0.156800
      8 C3         111.1220     6.6220    14.9250 ca         1 DE7      -0.102200
      9 C4         110.0390     7.1450    15.6200 ca         1 DE7      -0.146000
     10 C5         109.5200     8.3960    15.2630 ca         1 DE7       0.334000
     11 C6         110.1320     9.0650    14.1840 ca         1 DE7      -0.160000
     12 C7         112.8930     6.7190    13.0420 c3         1 DE7       0.212900
     13 N12        108.4370     8.9550    15.8870 nu         1 DE7      -0.954200
     14 N19        105.9590     8.6260    18.6310 n7         1 DE7      -0.865400
     15 N8         111.6010     5.3170    15.3890 no         1 DE7       0.666200
     16 O10        112.7940     5.0480    15.2650 o          1 DE7      -0.398500
     17 O11        110.7960     4.5480    15.8960 o          1 DE7      -0.398500
     18 O9         114.1680     6.9460    13.6530 oh         1 DE7      -0.657000
     19 H1         111.6250     9.0420    12.6690 ha         1 DE7       0.127000
     20 H2         107.8080     7.4150    17.1280 h1         1 DE7       0.082700
     21 H4         108.9700     9.9660    18.3170 hc         1 DE7       0.045700
     22 H5         108.1070     7.4070    19.7620 hc         1 DE7       0.053700
     23 H6         108.7690     8.8570    20.5140 hc         1 DE7       0.053700
     24 H7         106.8210    10.1750    19.8190 h1         1 DE7       0.033700
     25 H8         106.2630     8.7390    20.6920 h1         1 DE7       0.033700
     26 H9         106.5890    10.1860    17.3130 h1         1 DE7       0.036700
     27 H10        105.8640     8.7610    16.5480 h1         1 DE7       0.036700
     28 H11        109.6290     6.5800    16.4410 ha         1 DE7       0.151000
     29 H12        109.7490    10.0330    13.8830 ha         1 DE7       0.121000
     30 H13        112.7550     5.6550    12.8340 h1         1 DE7       0.055200
     31 H14        112.9240     7.2460    12.0890 h1         1 DE7       0.055200
     32 H15        108.2930     9.9360    15.6920 hn         1 DE7       0.473000
     33 H16        105.0060     8.9590    18.7220 hn         1 DE7       0.419000
     34 H18        114.1790     6.4070    14.4560 ho         1 DE7       0.462000
     35 H3         109.7920     8.4110    18.2470 hc         1 DE7       0.045700
@<TRIPOS>BOND
     1     1     6 ar  
     2     1    11 ar  
     3     1    19 1   
     4     2     3 1   
     5     2     7 1   
     6     2    13 1   
     7     2    20 1   
     8     3     4 1   
     9     3    21 1   
    10     3    35 1   
    11     4     5 1   
    12     4    22 1   
    13     4    23 1   
    14     5    14 1   
    15     5    24 1   
    16     5    25 1   
    17     6     8 ar  
    18     6    12 1   
    19     7    14 1   
    20     7    26 1   
    21     7    27 1   
    22     8     9 ar  
    23     8    15 1   
    24     9    10 ar  
    25     9    28 1   
    26    10    11 ar  
    27    10    13 1   
    28    11    29 1   
    29    12    18 1   
    30    12    30 1   
    31    12    31 1   
    32    13    32 1   
    33    14    33 1   
    34    15    16 1   
    35    15    17 1   
    36    18    34 1   
@<TRIPOS>SUBSTRUCTURE
     1 DE7         1 TEMP              0 ****  ****    0 ROOT
