@<TRIPOS>MOLECULE
DE7
   35    36     1     0     0
SMALL
No Charge or Current Charge


@<TRIPOS>ATOM
      1 C1         111.2860     8.6220    13.6610 ca         1 DE7      -0.055000
      2 C15        107.7920     8.3770    17.1330 c6         1 DE7       0.217500
      3 C16        108.8270     8.8880    18.1720 c6         1 DE7      -0.105400
      4 C17        108.3210     8.6390    19.6160 c6         1 DE7      -0.071400
      5 C18        106.9160     9.2560    19.8370 c6         1 DE7       0.155800
      6 C2         111.7870     7.3290    13.9150 ca         1 DE7      -0.116300
      7 C20        106.3840     8.9920    17.4360 c6         1 DE7       0.156800
      8 C3         111.0850     6.4780    14.8170 ca         1 DE7      -0.102200
      9 C4         109.8950     6.9480    15.4240 ca         1 DE7      -0.146000
     10 C5         109.4110     8.2410    15.1650 ca         1 DE7       0.334000
     11 C6         110.1100     9.0720    14.2820 ca         1 DE7      -0.160000
     12 C7         113.0490     6.8880    13.1700 c3         1 DE7       0.212900
     13 N12        108.2410     8.7210    15.7620 nu         1 DE7      -0.954200
     14 N19        105.9420     8.7500    18.8390 n7         1 DE7      -0.865400
     15 N8         111.5610     5.0950    15.1500 no         1 DE7       0.666200
     16 O10        112.7660     4.9360    15.3910 o          1 DE7      -0.398500
     17 O11        110.7060     4.2170    15.3260 o          1 DE7      -0.398500
     18 O9         114.1940     7.0180    14.0190 oh         1 DE7      -0.657000
     19 H1         111.8100     9.2840    12.9740 ha         1 DE7       0.127000
     20 H2         107.6950     7.2860    17.2440 h1         1 DE7       0.082700
     21 H4         109.0040     9.9620    18.0270 hc         1 DE7       0.045700
     22 H5         108.2810     7.5590    19.8150 hc         1 DE7       0.053700
     23 H6         109.0290     9.0640    20.3400 hc         1 DE7       0.053700
     24 H7         106.9830    10.3520    19.7580 h1         1 DE7       0.033700
     25 H8         106.5630     9.0170    20.8500 h1         1 DE7       0.033700
     26 H9         106.4150    10.0770    17.2530 h1         1 DE7       0.036700
     27 H10        105.6430     8.5640    16.7440 h1         1 DE7       0.036700
     28 H11        109.3490     6.3020    16.1040 ha         1 DE7       0.151000
     29 H12        109.7430    10.0720    14.0710 ha         1 DE7       0.121000
     30 H13        112.9330     5.8500    12.8290 h1         1 DE7       0.055200
     31 H14        113.1760     7.5030    12.2690 h1         1 DE7       0.055200
     32 H15        107.9270     9.6200    15.3940 hn         1 DE7       0.473000
     33 H16        105.0380     9.2170    18.9900 hn         1 DE7       0.419000
     34 H18        114.0420     6.3910    14.7640 ho         1 DE7       0.462000
     35 H3         109.7930     8.3860    18.0280 hc         1 DE7       0.045700
@<TRIPOS>BOND
     1     1     6 ar  
     2     1    11 ar  
     3     1    19 1   
     4     2     3 1   
     5     2     7 1   
     6     2    13 1   
     7     2    20 1   
     8     3     4 1   
     9     3    21 1   
    10     3    35 1   
    11     4     5 1   
    12     4    22 1   
    13     4    23 1   
    14     5    14 1   
    15     5    24 1   
    16     5    25 1   
    17     6     8 ar  
    18     6    12 1   
    19     7    14 1   
    20     7    26 1   
    21     7    27 1   
    22     8     9 ar  
    23     8    15 1   
    24     9    10 ar  
    25     9    28 1   
    26    10    11 ar  
    27    10    13 1   
    28    11    29 1   
    29    12    18 1   
    30    12    30 1   
    31    12    31 1   
    32    13    32 1   
    33    14    33 1   
    34    15    16 1   
    35    15    17 1   
    36    18    34 1   
@<TRIPOS>SUBSTRUCTURE
     1 DE7         1 TEMP              0 ****  ****    0 ROOT
