@<TRIPOS>MOLECULE
DE9
   66    70     1     0     0
SMALL
bcc


@<TRIPOS>ATOM
      1 CHA          1.6350    -0.0230    -0.0130 ce         1 DE9      -0.190600
      2 CHB         -1.8690    -3.2550     0.5910 ce         1 DE9      -0.093200
      3 CHC         -5.2010     0.2090    -0.0750 ce         1 DE9      -0.060200
      4 CHD         -1.6850     3.4380    -0.6730 ce         1 DE9      -0.272600
      5 NA          -0.3870    -1.3550     0.2350 nd         1 DE9      -0.678300
      6 C1A          0.9540    -1.2180     0.2150 cc         1 DE9       0.495900
      7 C2A          1.6260    -2.4900     0.4690 cc         1 DE9      -0.149800
      8 C3A          0.6320    -3.3990     0.6410 cd         1 DE9      -0.160200
      9 C4A         -0.6150    -2.6620     0.4880 cd         1 DE9       0.140600
     10 CMA          0.7430    -4.8590     0.9120 c3         1 DE9      -0.019900
     11 CAA          3.1000    -2.7220     0.4650 c3         1 DE9      -0.021200
     12 CBA          3.6410    -2.9610    -0.9440 c3         1 DE9      -0.200400
     13 CGA          5.1470    -3.2650    -1.0300 c          1 DE9       0.930600
     14 O1A          5.7800    -3.3890     0.0360 o          1 DE9      -0.843800
     15 O2A          5.6110    -3.3730    -2.1850 o          1 DE9      -0.843800
     16 NB          -3.3090    -1.3140     0.2150 na         1 DE9      -0.099100
     17 C1B         -3.1020    -2.6350     0.4650 cc         1 DE9      -0.040100
     18 C2B         -4.3910    -3.2520     0.5770 cd         1 DE9      -0.136300
     19 C3B         -5.3220    -2.2660     0.3900 cd         1 DE9      -0.171000
     20 C4B         -4.6390    -1.0380     0.1600 cc         1 DE9      -0.080100
     21 CMB         -4.6280    -4.6980     0.8420 c3         1 DE9      -0.015800
     22 NC          -3.1730     1.5360    -0.3210 nd         1 DE9      -0.658300
     23 C1C         -4.5180     1.3990    -0.2960 cd         1 DE9       0.086600
     24 C2C         -5.1850     2.6750    -0.5340 cd         1 DE9      -0.124200
     25 C3C         -4.1840     3.5720    -0.6980 cc         1 DE9      -0.271600
     26 C4C         -2.9420     2.8400    -0.5630 cc         1 DE9       0.474900
     27 CMC         -6.6570     2.8980    -0.5760 c3         1 DE9      -0.023900
     28 ND          -0.2490     1.4960    -0.3140 na         1 DE9      -0.552800
     29 C1D         -0.4550     2.8180    -0.5580 cc         1 DE9       0.171000
     30 C2D          0.8360     3.4340    -0.6600 cc         1 DE9      -0.152200
     31 C3D          1.7800     2.4570    -0.4740 cd         1 DE9      -0.025200
     32 C4D          1.0810     1.2220    -0.2520 cd         1 DE9       0.135000
     33 CMD          1.0630     4.8870    -0.8950 c3         1 DE9      -0.020900
     34 CAD          3.2610     2.6290    -0.4230 c3         1 DE9      -0.025200
     35 CBD          3.7350     3.0070     0.9810 c3         1 DE9      -0.201400
     36 CGD          5.2510     3.2280     1.1250 c          1 DE9       0.930600
     37 O1D          5.6380     3.6080     2.2500 o          1 DE9      -0.839800
     38 O2D          5.9680     3.0080     0.1300 o          1 DE9      -0.839800
     39 H1           2.7160    -0.0630     0.0010 ha         1 DE9       0.186000
     40 H2          -1.8980    -4.3190     0.7880 ha         1 DE9       0.132000
     41 H3          -6.2830     0.2430    -0.0840 ha         1 DE9       0.121000
     42 H4          -1.6690     4.5030    -0.8650 ha         1 DE9       0.130000
     43 H5           0.1450    -5.1600     1.7740 hc         1 DE9       0.034033
     44 H6           0.3980    -5.4530     0.0620 hc         1 DE9       0.034033
     45 H7           1.7740    -5.1470     1.1130 hc         1 DE9       0.034033
     46 H8           3.6220    -1.8770     0.9200 hc         1 DE9       0.060700
     47 H9           3.3350    -3.5830     1.0930 hc         1 DE9       0.060700
     48 H10          3.0950    -3.7940    -1.4030 hc         1 DE9       0.019700
     49 H11          3.4240    -2.0970    -1.5790 hc         1 DE9       0.019700
     50 H13         -2.5760    -0.6300     0.0940 hn         1 DE9       0.355700
     51 H14         -6.3960    -2.3750     0.4080 ha         1 DE9       0.135000
     52 H15         -4.1150    -5.0300     1.7460 hc         1 DE9       0.032700
     53 H16         -5.6910    -4.8990     0.9680 hc         1 DE9       0.032700
     54 H17         -4.2660    -5.3180     0.0200 hc         1 DE9       0.032700
     55 H18         -4.2720     4.6310    -0.8920 ha         1 DE9       0.135000
     56 H19         -7.1280     2.6540     0.3780 hc         1 DE9       0.030700
     57 H20         -6.8870     3.9370    -0.8060 hc         1 DE9       0.030700
     58 H21         -7.1350     2.2750    -1.3350 hc         1 DE9       0.030700
     59 H22         -0.9800     0.8090    -0.1990 hn         1 DE9       0.502800
     60 H23          0.4520     5.2650    -1.7160 hc         1 DE9       0.039367
     61 H24          0.8150     5.4750    -0.0100 hc         1 DE9       0.039367
     62 H25          2.1040     5.0880    -1.1390 hc         1 DE9       0.039367
     63 H26          3.7630     1.7160    -0.7480 hc         1 DE9       0.066700
     64 H27          3.5620     3.4030    -1.1310 hc         1 DE9       0.066700
     65 H28          3.2130     3.9120     1.3110 hc         1 DE9       0.020700
     66 H29          3.4310     2.2290     1.6910 hc         1 DE9       0.020700
@<TRIPOS>BOND
     1     1     6 1   
     2     1    32 2   
     3     1    39 1   
     4     2     9 2   
     5     2    17 1   
     6     2    40 1   
     7     3    20 1   
     8     3    23 2   
     9     3    41 1   
    10     4    26 1   
    11     4    29 2   
    12     4    42 1   
    13     5     6 2   
    14     5     9 1   
    15     6     7 1   
    16     7     8 2   
    17     7    11 1   
    18     8     9 1   
    19     8    10 1   
    20    10    43 1   
    21    10    44 1   
    22    10    45 1   
    23    11    12 1   
    24    11    46 1   
    25    11    47 1   
    26    12    13 1   
    27    12    48 1   
    28    12    49 1   
    29    13    14 1   
    30    13    15 1   
    31    16    17 1   
    32    16    20 1   
    33    16    50 1   
    34    17    18 2   
    35    18    19 1   
    36    18    21 1   
    37    19    20 2   
    38    19    51 1   
    39    21    52 1   
    40    21    53 1   
    41    21    54 1   
    42    22    23 1   
    43    22    26 2   
    44    23    24 1   
    45    24    25 2   
    46    24    27 1   
    47    25    26 1   
    48    25    55 1   
    49    27    56 1   
    50    27    57 1   
    51    27    58 1   
    52    28    29 1   
    53    28    32 1   
    54    28    59 1   
    55    29    30 1   
    56    30    31 2   
    57    30    33 1   
    58    31    32 1   
    59    31    34 1   
    60    33    60 1   
    61    33    61 1   
    62    33    62 1   
    63    34    35 1   
    64    34    63 1   
    65    34    64 1   
    66    35    36 1   
    67    35    65 1   
    68    35    66 1   
    69    36    37 1   
    70    36    38 1   
@<TRIPOS>SUBSTRUCTURE
     1 DE9         1 TEMP              0 ****  ****    0 ROOT
