@<TRIPOS>MOLECULE
DE9
   66    70     1     0     0
SMALL
No Charge or Current Charge


@<TRIPOS>ATOM
      1 CHA          1.5610     0.0040     0.0030 ce         1 DE9      -0.240600
      2 CHB         -1.8230    -3.3210     0.6210 ce         1 DE9      -0.143200
      3 CHC         -5.2260     0.2610    -0.0740 ce         1 DE9      -0.110200
      4 CHD         -1.7490     3.5610    -0.6830 ce         1 DE9      -0.322600
      5 NA          -0.3950    -1.3990     0.2710 nd         1 DE9      -0.678300
      6 C1A          0.9290    -1.2910     0.2390 cc         1 DE9       0.495900
      7 C2A          1.6240    -2.5280     0.4460 cc         1 DE9      -0.149800
      8 C3A          0.6550    -3.4810     0.6150 cd         1 DE9      -0.160200
      9 C4A         -0.5720    -2.7520     0.5070 cd         1 DE9       0.140600
     10 CMA          0.8260    -4.9640     0.8520 c3         1 DE9      -0.019900
     11 CAA          3.1260    -2.7050     0.4570 c3         1 DE9      -0.021200
     12 CBA          3.7120    -2.8750    -0.9640 c3         1 DE9      -0.200400
     13 CGA          5.2270    -3.1270    -0.8850 c          1 DE9       0.720000
     14 O1A          5.6150    -4.2800    -0.7690 o          1 DE9      -0.738500
     15 O2A          5.9730    -2.1600    -0.8920 o          1 DE9      -0.738500
     16 NB          -3.3640    -1.3870     0.2540 na         1 DE9      -0.048000
     17 C1B         -3.1550    -2.7360     0.5090 cc         1 DE9      -0.090800
     18 C2B         -4.4050    -3.2940     0.6090 cd         1 DE9      -0.136300
     19 C3B         -5.3570    -2.2650     0.4090 cd         1 DE9      -0.153000
     20 C4B         -4.7130    -1.0780     0.1870 cc         1 DE9      -0.130800
     21 CMB         -4.7290    -4.7400     0.8790 c3         1 DE9      -0.015800
     22 NC          -3.1980     1.5940    -0.3160 nd         1 DE9      -0.658300
     23 C1C         -4.5840     1.4620    -0.3030 cd         1 DE9       0.086600
     24 C2C         -5.2760     2.6920    -0.5490 cd         1 DE9      -0.124200
     25 C3C         -4.2640     3.5860    -0.7140 cc         1 DE9      -0.321600
     26 C4C         -3.0410     2.8910    -0.5670 cc         1 DE9       0.474900
     27 CMC         -6.7610     2.9460    -0.6110 c3         1 DE9      -0.023900
     28 ND          -0.2820     1.5680    -0.3080 na         1 DE9      -0.608000
     29 C1D         -0.4600     2.8950    -0.5440 cc         1 DE9       0.171000
     30 C2D          0.8460     3.4750    -0.6170 cc         1 DE9      -0.152200
     31 C3D          1.7890     2.4760    -0.4320 cd         1 DE9      -0.025200
     32 C4D          1.0490     1.2580    -0.2310 cd         1 DE9       0.135000
     33 CMD          1.0770     4.9480    -0.8540 c3         1 DE9      -0.020900
     34 CAD          3.2940     2.6370    -0.4300 c3         1 DE9      -0.025200
     35 CBD          3.8580     2.8600     0.9930 c3         1 DE9      -0.201400
     36 CGD          5.3750     3.0970     0.9280 c          1 DE9       0.720000
     37 O1D          5.7730     4.2410     0.7690 o          1 DE9      -0.734500
     38 O2D          6.1130     2.1260     0.9870 o          1 DE9      -0.734500
     39 H1           2.6430    -0.0370     0.0260 ha         1 DE9       0.236000
     40 H2          -1.8260    -4.3920     0.8130 ha         1 DE9       0.182000
     41 H3          -6.3140     0.3140    -0.0930 ha         1 DE9       0.171000
     42 H4          -1.7600     4.6270    -0.8920 ha         1 DE9       0.180000
     43 H5           0.5680    -5.2260     1.8850 hc         1 DE9       0.034033
     44 H6           0.1810    -5.5470     0.1850 hc         1 DE9       0.034033
     45 H7           1.8560    -5.2910     0.6700 hc         1 DE9       0.034033
     46 H8           3.6090    -1.8580     0.9580 hc         1 DE9       0.060700
     47 H9           3.3900    -3.5830     1.0600 hc         1 DE9       0.060700
     48 H10          3.2010    -3.7460    -1.3930 hc         1 DE9       0.019700
     49 H11          3.5030    -1.9370    -1.4920 hc         1 DE9       0.019700
     50 H13         -2.6160    -0.7150     0.1320 hn         1 DE9       0.406000
     51 H14         -6.4350    -2.3950     0.4260 ha         1 DE9       0.117000
     52 H15         -4.3130    -5.0630     1.8400 hc         1 DE9       0.032700
     53 H16         -5.8130    -4.9070     0.9110 hc         1 DE9       0.032700
     54 H17         -4.3140    -5.3880     0.0970 hc         1 DE9       0.032700
     55 H18         -4.3500     4.6470    -0.9210 ha         1 DE9       0.185000
     56 H19         -7.2440     2.6890     0.3390 hc         1 DE9       0.030700
     57 H20         -6.9750     4.0010    -0.8200 hc         1 DE9       0.030700
     58 H21         -7.2290     2.3480    -1.4020 hc         1 DE9       0.030700
     59 H22         -1.0430     0.9010    -0.2010 hn         1 DE9       0.558000
     60 H23          0.9130     5.2020    -1.9070 hc         1 DE9       0.039367
     61 H24          0.3950     5.5550    -0.2480 hc         1 DE9       0.039367
     62 H25          2.0970     5.2460    -0.5890 hc         1 DE9       0.039367
     63 H26          3.7720     1.7590    -0.8800 hc         1 DE9       0.066700
     64 H27          3.5800     3.4820    -1.0690 hc         1 DE9       0.066700
     65 H28          3.3480     3.7520     1.3780 hc         1 DE9       0.020700
     66 H29          3.6320     1.9460     1.5550 hc         1 DE9       0.020700
@<TRIPOS>BOND
     1     1     6 1   
     2     1    32 2   
     3     1    39 1   
     4     2     9 2   
     5     2    17 1   
     6     2    40 1   
     7     3    20 1   
     8     3    23 2   
     9     3    41 1   
    10     4    26 1   
    11     4    29 2   
    12     4    42 1   
    13     5     6 2   
    14     5     9 1   
    15     6     7 1   
    16     7     8 2   
    17     7    11 1   
    18     8     9 1   
    19     8    10 1   
    20    10    43 1   
    21    10    44 1   
    22    10    45 1   
    23    11    12 1   
    24    11    46 1   
    25    11    47 1   
    26    12    13 1   
    27    12    48 1   
    28    12    49 1   
    29    13    14 1   
    30    13    15 1   
    31    16    17 1   
    32    16    20 1   
    33    16    50 1   
    34    17    18 2   
    35    18    19 1   
    36    18    21 1   
    37    19    20 2   
    38    19    51 1   
    39    21    52 1   
    40    21    53 1   
    41    21    54 1   
    42    22    23 1   
    43    22    26 2   
    44    23    24 1   
    45    24    25 2   
    46    24    27 1   
    47    25    26 1   
    48    25    55 1   
    49    27    56 1   
    50    27    57 1   
    51    27    58 1   
    52    28    29 1   
    53    28    32 1   
    54    28    59 1   
    55    29    30 1   
    56    30    31 2   
    57    30    33 1   
    58    31    32 1   
    59    31    34 1   
    60    33    60 1   
    61    33    61 1   
    62    33    62 1   
    63    34    35 1   
    64    34    63 1   
    65    34    64 1   
    66    35    36 1   
    67    35    65 1   
    68    35    66 1   
    69    36    37 1   
    70    36    38 1   
@<TRIPOS>SUBSTRUCTURE
     1 DE9         1 TEMP              0 ****  ****    0 ROOT
