@<TRIPOS>MOLECULE
DEA
   28    29     1     0     0
SMALL
abcg2


@<TRIPOS>ATOM
      1 N9          -0.9770    -0.4110     0.6380 na         1 DEA      -0.249300
      2 C8          -1.9940     0.3600     1.1210 cc         1 DEA       0.411700
      3 N7          -1.7930     0.7920     2.3330 nd         1 DEA      -0.581100
      4 C5          -0.5660     0.2830     2.6680 ca         1 DEA      -0.097600
      5 C6           0.2180     0.3650     3.8330 ca         1 DEA       0.438900
      6 N6          -0.1560     1.0660     4.9080 nv         1 DEA      -1.072900
      7 N1           1.3920    -0.2750     3.8470 nb         1 DEA      -0.315000
      8 C2           1.7690    -0.9580     2.7670 ca         1 DEA       0.166900
      9 N3           1.1270    -1.1060     1.6230 nb         1 DEA      -0.201000
     10 C4          -0.0390    -0.4610     1.6230 ca         1 DEA       0.129500
     11 C1          -0.8610    -0.9630    -0.6930 c3         1 DEA       0.031600
     12 C7          -0.2420     0.0430    -1.6690 c3         1 DEA       0.151300
     13 O2           0.9390     0.5890    -1.1470 oh         1 DEA      -0.638000
     14 C3          -0.0570    -0.6150    -3.0470 c3         1 DEA      -0.013700
     15 O3          -1.2940    -1.0990    -3.5040 oh         1 DEA      -0.712000
     16 C9           0.5120     0.3890    -4.0760 c          1 DEA       0.703000
     17 O           -0.3410     0.8220    -4.8860 o          1 DEA      -0.709500
     18 OXT          1.7150     0.6730    -4.0190 o          1 DEA      -0.709500
     19 H8          -2.8730     0.5610     0.5260 h5         1 DEA       0.064800
     20 HN61         0.3780     1.0030     5.7570 hn         1 DEA       0.494500
     21 HN62        -1.0740     1.4730     4.9600 hn         1 DEA       0.494500
     22 H2           2.7290    -1.4580     2.8450 h5         1 DEA       0.036100
     23 H1'1        -0.2420    -1.8610    -0.6290 h1         1 DEA       0.071200
     24 H1'2        -1.8500    -1.2680    -1.0300 h1         1 DEA       0.071200
     25 H4          -0.9370     0.8840    -1.7780 h1         1 DEA       0.071700
     26 HO'2         1.6190    -0.0930    -1.1320 ho         1 DEA       0.447000
     27 H3           0.6480    -1.4530    -2.9370 h1         1 DEA       0.037700
     28 HO'3        -1.5120    -0.4660    -4.2140 ho         1 DEA       0.479000
@<TRIPOS>BOND
     1     1     2 1   
     2     1    10 1   
     3     1    11 1   
     4     2     3 2   
     5     2    19 1   
     6     3     4 1   
     7     4     5 ar  
     8     4    10 ar  
     9     5     6 1   
    10     5     7 ar  
    11     6    20 1   
    12     6    21 1   
    13     7     8 ar  
    14     8     9 ar  
    15     8    22 1   
    16     9    10 ar  
    17    11    12 1   
    18    11    23 1   
    19    11    24 1   
    20    12    13 1   
    21    12    14 1   
    22    12    25 1   
    23    13    26 1   
    24    14    15 1   
    25    14    16 1   
    26    14    27 1   
    27    15    28 1   
    28    16    17 1   
    29    16    18 1   
@<TRIPOS>SUBSTRUCTURE
     1 DEA         1 TEMP              0 ****  ****    0 ROOT
