@<TRIPOS>MOLECULE
DEA
   28    29     1     0     0
SMALL
No Charge or Current Charge


@<TRIPOS>ATOM
      1 N9          -0.8780    -0.3120     0.6250 na         1 DEA      -0.249300
      2 C8          -1.9450     0.4630     1.0870 cc         1 DEA       0.411700
      3 N7          -1.7420     0.8440     2.3640 nd         1 DEA      -0.581100
      4 C5          -0.5020     0.2680     2.6830 ca         1 DEA      -0.097600
      5 C6           0.2280     0.3200     3.8890 ca         1 DEA       0.438900
      6 N6          -0.2120     0.9900     4.9870 nv         1 DEA      -1.072900
      7 N1           1.4090    -0.3060     4.0150 nb         1 DEA      -0.315000
      8 C2           1.8480    -0.9760     2.9210 ca         1 DEA       0.166900
      9 N3           1.2190    -1.0780     1.7250 nb         1 DEA      -0.201000
     10 C4           0.0330    -0.4420     1.6360 ca         1 DEA       0.129500
     11 C1          -0.7180    -0.9480    -0.6990 c3         1 DEA       0.031600
     12 C7          -0.2000     0.0190    -1.7980 c3         1 DEA       0.151300
     13 O2           1.0770     0.5410    -1.3990 oh         1 DEA      -0.638000
     14 C3          -0.0780    -0.6620    -3.1930 c3         1 DEA      -0.013700
     15 O3          -1.3660    -1.2140    -3.6040 oh         1 DEA      -0.712000
     16 C9           0.4940     0.3420    -4.2550 c          1 DEA       0.703000
     17 O           -0.2770     1.1770    -4.7140 o          1 DEA      -0.709500
     18 OXT          1.6030     0.1260    -4.7280 o          1 DEA      -0.709500
     19 H8          -2.8030     0.7020     0.4690 h5         1 DEA       0.064800
     20 HN61         0.1980     0.7530     5.8870 hn         1 DEA       0.494500
     21 HN62        -1.1860     1.2850     4.9890 hn         1 DEA       0.494500
     22 H2           2.8060    -1.4860     3.0120 h5         1 DEA       0.036100
     23 H1'1        -0.0340    -1.8020    -0.6150 h1         1 DEA       0.071200
     24 H1'2        -1.6950    -1.3460    -1.0010 h1         1 DEA       0.071200
     25 H4          -0.9220     0.8440    -1.8860 h1         1 DEA       0.071700
     26 HO'2         1.0200     0.7210    -0.4350 ho         1 DEA       0.447000
     27 H3           0.6480    -1.4800    -3.1000 h1         1 DEA       0.037700
     28 HO'3        -1.7920    -0.5270    -4.1730 ho         1 DEA       0.479000
@<TRIPOS>BOND
     1     1     2 1   
     2     1    10 1   
     3     1    11 1   
     4     2     3 2   
     5     2    19 1   
     6     3     4 1   
     7     4     5 ar  
     8     4    10 ar  
     9     5     6 1   
    10     5     7 ar  
    11     6    20 1   
    12     6    21 1   
    13     7     8 ar  
    14     8     9 ar  
    15     8    22 1   
    16     9    10 ar  
    17    11    12 1   
    18    11    23 1   
    19    11    24 1   
    20    12    13 1   
    21    12    14 1   
    22    12    25 1   
    23    13    26 1   
    24    14    15 1   
    25    14    16 1   
    26    14    27 1   
    27    15    28 1   
    28    16    17 1   
    29    16    18 1   
@<TRIPOS>SUBSTRUCTURE
     1 DEA         1 TEMP              0 ****  ****    0 ROOT
