@<TRIPOS>MOLECULE
DEA
   28    29     1     0     0
SMALL
bcc


@<TRIPOS>ATOM
      1 H9          -0.9770    -0.4110     0.6380 na         1 DEA      -0.137000
      2 H8          -1.9940     0.3600     1.1210 cc         1 DEA      -0.044000
      3 H7          -1.7930     0.7920     2.3330 n2         1 DEA      -0.154000
      4 H5          -0.5660     0.2830     2.6680 ca         1 DEA      -0.237000
      5 H6           0.2180     0.3650     3.8330 ca         1 DEA       0.246000
      6 H6          -0.1560     1.0660     4.9080 nv         1 DEA      -0.360000
      7 H1           1.3920    -0.2750     3.8470 nb         1 DEA      -0.315000
      8 H2           1.7690    -0.9580     2.7670 ca         1 DEA       0.030000
      9 H3           1.1270    -1.1060     1.6230 nb         1 DEA      -0.201000
     10 H4          -0.0390    -0.4610     1.6230 ca         1 DEA       0.066000
     11 H1          -0.8610    -0.9630    -0.6930 c3         1 DEA      -0.057000
     12 H7          -0.2420     0.0430    -1.6690 c3         1 DEA       0.017000
     13 H2           0.9390     0.5890    -1.1470 oh         1 DEA      -0.303000
     14 H3          -0.0570    -0.6150    -3.0470 c3         1 DEA      -0.098000
     15 H3          -1.2940    -1.0990    -3.5040 oh         1 DEA      -0.377000
     16 H9           0.5120     0.3890    -4.0760 c          1 DEA       0.333000
     17 H           -0.3410     0.8220    -4.8860 o          1 DEA      -0.549500
     18 HXT          1.7150     0.6730    -4.0190 o          1 DEA      -0.549500
     19 H8          -2.8730     0.5610     0.5260 ha         1 DEA       0.194000
     20 HN61         0.3780     1.0030     5.7570 ha         1 DEA       0.234500
     21 HN62        -1.0740     1.4730     4.9600 ha         1 DEA       0.234500
     22 H2           2.7290    -1.4580     2.8450 ha         1 DEA       0.173000
     23 H1'1        -0.2420    -1.8610    -0.6290 ha         1 DEA       0.110500
     24 H1'2        -1.8500    -1.2680    -1.0300 ha         1 DEA       0.110500
     25 H4          -0.9370     0.8840    -1.7780 ha         1 DEA       0.111000
     26 HO'2         1.6190    -0.0930    -1.1320 ha         1 DEA       0.207000
     27 H3           0.6480    -1.4530    -2.9370 ha         1 DEA       0.077000
     28 HO'3        -1.5120    -0.4660    -4.2140 ha         1 DEA       0.239000
@<TRIPOS>BOND
     1     1     2 1   
     2     1    10 1   
     3     1    11 1   
     4     2     3 2   
     5     2    19 1   
     6     3     4 1   
     7     4     5 ar  
     8     4    10 ar  
     9     5     6 1   
    10     5     7 ar  
    11     6    20 1   
    12     6    21 1   
    13     7     8 ar  
    14     8     9 ar  
    15     8    22 1   
    16     9    10 ar  
    17    11    12 1   
    18    11    23 1   
    19    11    24 1   
    20    12    13 1   
    21    12    14 1   
    22    12    25 1   
    23    13    26 1   
    24    14    15 1   
    25    14    16 1   
    26    14    27 1   
    27    15    28 1   
    28    16    17 1   
    29    16    18 1   
@<TRIPOS>SUBSTRUCTURE
     1 DEA         1 TEMP              0 ****  ****    0 ROOT
