@<TRIPOS>MOLECULE
DEB
   65    65     1     0     0
SMALL
No Charge or Current Charge


@<TRIPOS>ATOM
      1 C1           2.5810     0.4630     0.3190 c          1 DEB       0.591100
      2 C2           2.6000    -0.1580    -1.0860 c3         1 DEB      -0.154700
      3 C3           1.4320     0.4570    -1.9190 c3         1 DEB       0.185300
      4 C4           0.6260    -0.5460    -2.8180 c3         1 DEB      -0.040700
      5 C5          -0.7370     0.0910    -3.3150 c3         1 DEB       0.180300
      6 C6          -2.0220    -0.3700    -2.5330 c3         1 DEB      -0.097700
      7 C7          -1.9450     0.0250    -1.0260 c3         1 DEB      -0.067400
      8 C8          -3.2730     0.2650    -0.2400 c3         1 DEB      -0.158700
      9 C9          -2.9530     0.8910     1.1430 c          1 DEB       0.560100
     10 C10         -2.1540     0.0460     2.1620 c3         1 DEB      -0.192700
     11 C11         -0.6660     0.5040     2.1750 c3         1 DEB       0.183300
     12 C12          0.3520    -0.3980     2.9530 c3         1 DEB      -0.056700
     13 C13          1.8110     0.0350     2.5940 c3         1 DEB       0.181300
     14 C14          2.9190    -0.5760     3.4940 c3         1 DEB      -0.088400
     15 C15          4.3260     0.0070     3.2420 c3         1 DEB      -0.089100
     16 O16          2.0470    -0.4020     1.2370 os         1 DEB      -0.458100
     17 O17          2.9460     1.6040     0.5620 o          1 DEB      -0.496000
     18 C18          4.0220    -0.0900    -1.7160 c3         1 DEB      -0.077100
     19 O19          1.9020     1.5650    -2.6960 oh         1 DEB      -0.649000
     20 C20          1.4880    -1.1930    -3.9410 c3         1 DEB      -0.068100
     21 O21         -0.9510    -0.1170    -4.7210 oh         1 DEB      -0.647000
     22 C22         -2.3320    -1.8830    -2.7440 c3         1 DEB      -0.085100
     23 C23         -4.1950    -0.9720    -0.0940 c3         1 DEB      -0.085100
     24 O24         -3.2730     2.0440     1.4040 o          1 DEB      -0.511100
     25 C25         -2.8380     0.0230     3.5580 c3         1 DEB      -0.076100
     26 O26         -0.6030     1.8360     2.6970 oh         1 DEB      -0.660000
     27 C27          0.1230    -1.9260     2.7400 c3         1 DEB      -0.089100
     28 H2           2.3570    -1.2180    -0.9500 hc         1 DEB       0.077700
     29 H3           0.7150     0.8410    -1.1850 h1         1 DEB       0.016700
     30 H4           0.3590    -1.3800    -2.1610 hc         1 DEB       0.046700
     31 H5          -0.6590     1.1760    -3.1610 h1         1 DEB       0.034700
     32 H6          -2.8610     0.1910    -2.9640 hc         1 DEB       0.046700
     33 H71         -1.3320    -0.7170    -0.5000 hc         1 DEB       0.040700
     34 H72         -1.4030     0.9750    -0.9650 hc         1 DEB       0.040700
     35 H8          -3.8400     1.0270    -0.7890 hc         1 DEB       0.076700
     36 H10         -2.1600    -0.9750     1.7730 hc         1 DEB       0.069700
     37 H11         -0.3350     0.5230     1.1300 h1         1 DEB       0.035700
     38 H12          0.2080    -0.2040     4.0230 hc         1 DEB       0.070700
     39 H13          1.8670     1.1280     2.6900 h1         1 DEB       0.088700
     40 H141         2.9650    -1.6620     3.3510 hc         1 DEB       0.048700
     41 H142         2.6550    -0.4050     4.5440 hc         1 DEB       0.048700
     42 H151         5.0460    -0.4180     3.9510 hc         1 DEB       0.038700
     43 H152         4.6720    -0.2260     2.2280 hc         1 DEB       0.038700
     44 H153         4.3240     1.0960     3.3680 hc         1 DEB       0.038700
     45 H181         4.7360    -0.6510    -1.1000 hc         1 DEB       0.048033
     46 H182         4.0430    -0.5160    -2.7240 hc         1 DEB       0.048033
     47 H183         4.3810     0.9450    -1.7790 hc         1 DEB       0.048033
     48 HO9          2.3280     2.1930    -2.0730 ho         1 DEB       0.459000
     49 H201         2.3350    -1.7430    -3.5170 hc         1 DEB       0.041033
     50 H202         0.9030    -1.9220    -4.5140 hc         1 DEB       0.041033
     51 H203         1.8750    -0.4360    -4.6340 hc         1 DEB       0.041033
     52 HO1         -1.7660     0.3730    -4.9610 ho         1 DEB       0.442000
     53 H221        -3.3450    -2.1380    -2.4220 hc         1 DEB       0.038700
     54 H222        -2.2640    -2.1630    -3.8010 hc         1 DEB       0.038700
     55 H223        -1.6350    -2.5170    -2.1840 hc         1 DEB       0.038700
     56 H231        -4.9520    -0.7980     0.6810 hc         1 DEB       0.040367
     57 H232        -4.7350    -1.1650    -1.0280 hc         1 DEB       0.040367
     58 H233        -3.6280    -1.8700     0.1770 hc         1 DEB       0.040367
     59 H251        -3.8620    -0.3600     3.4740 hc         1 DEB       0.044367
     60 H252        -2.2940    -0.6260     4.2540 hc         1 DEB       0.044367
     61 H253        -2.8870     1.0260     3.9980 hc         1 DEB       0.044367
     62 HO6         -1.4300     2.2900     2.4200 ho         1 DEB       0.451000
     63 H271         0.8860    -2.5220     3.2520 hc         1 DEB       0.039033
     64 H272        -0.8420    -2.2440     3.1500 hc         1 DEB       0.039033
     65 H273         0.1440    -2.1850     1.6740 hc         1 DEB       0.039033
@<TRIPOS>BOND
     1     1     2 1   
     2     1    16 1   
     3     1    17 2   
     4     2     3 1   
     5     2    18 1   
     6     2    28 1   
     7     3     4 1   
     8     3    19 1   
     9     3    29 1   
    10     4     5 1   
    11     4    20 1   
    12     4    30 1   
    13     5     6 1   
    14     5    21 1   
    15     5    31 1   
    16     6     7 1   
    17     6    22 1   
    18     6    32 1   
    19     7     8 1   
    20     7    33 1   
    21     7    34 1   
    22     8     9 1   
    23     8    23 1   
    24     8    35 1   
    25     9    10 1   
    26     9    24 2   
    27    10    11 1   
    28    10    25 1   
    29    10    36 1   
    30    11    12 1   
    31    11    26 1   
    32    11    37 1   
    33    12    13 1   
    34    12    27 1   
    35    12    38 1   
    36    13    14 1   
    37    13    16 1   
    38    13    39 1   
    39    14    15 1   
    40    14    40 1   
    41    14    41 1   
    42    15    42 1   
    43    15    43 1   
    44    15    44 1   
    45    18    45 1   
    46    18    46 1   
    47    18    47 1   
    48    19    48 1   
    49    20    49 1   
    50    20    50 1   
    51    20    51 1   
    52    21    52 1   
    53    22    53 1   
    54    22    54 1   
    55    22    55 1   
    56    23    56 1   
    57    23    57 1   
    58    23    58 1   
    59    25    59 1   
    60    25    60 1   
    61    25    61 1   
    62    26    62 1   
    63    27    63 1   
    64    27    64 1   
    65    27    65 1   
@<TRIPOS>SUBSTRUCTURE
     1 DEB         1 TEMP              0 ****  ****    0 ROOT
