@<TRIPOS>MOLECULE
DEB
   65    65     1     0     0
SMALL
bcc


@<TRIPOS>ATOM
      1 C1           2.4500     0.2580     0.3230 c          1 DEB       0.641100
      2 C2           2.3490    -0.4030    -1.0360 c3         1 DEB      -0.154700
      3 C3           1.3650     0.4610    -1.8790 c3         1 DEB       0.162100
      4 C4           0.5000    -0.3360    -2.8700 c3         1 DEB      -0.040700
      5 C5          -0.7540     0.5110    -3.2350 c3         1 DEB       0.157100
      6 C6          -2.0510    -0.0200    -2.5830 c3         1 DEB      -0.097700
      7 C7          -1.8970     0.0420    -1.0610 c3         1 DEB      -0.067400
      8 C8          -3.1310    -0.2890    -0.1950 c3         1 DEB      -0.158700
      9 C9          -3.0410     0.5000     1.1110 c          1 DEB       0.560100
     10 C10         -2.1810    -0.0240     2.2560 c3         1 DEB      -0.192700
     11 C11         -0.6890     0.2780     1.9650 c3         1 DEB       0.160100
     12 C12          0.2840    -0.3240     2.9900 c3         1 DEB      -0.056700
     13 C13          1.7330     0.0330     2.6150 c3         1 DEB       0.158100
     14 C14          2.7750    -0.5130     3.5780 c3         1 DEB      -0.088400
     15 C15          4.1890    -0.0200     3.2990 c3         1 DEB      -0.089100
     16 O16          1.9710    -0.5030     1.2940 os         1 DEB      -0.434900
     17 O17          2.8890     1.3740     0.4790 o          1 DEB      -0.545000
     18 C18          3.7470    -0.5530    -1.6330 c3         1 DEB      -0.077100
     19 O19          2.0120     1.4940    -2.5760 oh         1 DEB      -0.586800
     20 C20          1.2720    -0.8620    -4.0770 c3         1 DEB      -0.068100
     21 O21         -0.8890     0.5890    -4.6360 oh         1 DEB      -0.584800
     22 C22         -2.4530    -1.3910    -3.1130 c3         1 DEB      -0.085100
     23 C23         -3.3140    -1.7860     0.0540 c3         1 DEB      -0.085100
     24 O24         -3.6370     1.5490     1.2200 o          1 DEB      -0.511100
     25 C25         -2.6390     0.5310     3.5990 c3         1 DEB      -0.076100
     26 O26         -0.4460     1.6660     1.9160 oh         1 DEB      -0.597800
     27 C27          0.0650    -1.8270     3.1510 c3         1 DEB      -0.089100
     28 H2           1.9100    -1.3950    -0.9070 hc         1 DEB       0.077700
     29 H3           0.6540     0.9050    -1.1670 h1         1 DEB       0.016700
     30 H4           0.1620    -1.2210    -2.3210 hc         1 DEB       0.046700
     31 H5          -0.6050     1.5270    -2.8400 h1         1 DEB       0.034700
     32 H6          -2.8440     0.6910    -2.8540 hc         1 DEB       0.046700
     33 H71         -1.0870    -0.6280    -0.7660 hc         1 DEB       0.040700
     34 H72         -1.5630     1.0600    -0.8290 hc         1 DEB       0.040700
     35 H8          -4.0190     0.0990    -0.7030 hc         1 DEB       0.076700
     36 H10         -2.2870    -1.1100     2.2670 hc         1 DEB       0.069700
     37 H11         -0.4440    -0.1870     1.0040 h1         1 DEB       0.035700
     38 H12          0.1060     0.1520     3.9610 hc         1 DEB       0.070700
     39 H13          1.8300     1.1180     2.5800 h1         1 DEB       0.088700
     40 H141         2.7650    -1.6050     3.5740 hc         1 DEB       0.048700
     41 H142         2.4750    -0.2070     4.5840 hc         1 DEB       0.048700
     42 H151         4.8720    -0.3730     4.0710 hc         1 DEB       0.038700
     43 H152         4.5680    -0.3860     2.3440 hc         1 DEB       0.038700
     44 H153         4.2390     1.0690     3.2840 hc         1 DEB       0.038700
     45 H181         4.3610    -1.1920    -0.9980 hc         1 DEB       0.048033
     46 H182         3.7100    -1.0130    -2.6180 hc         1 DEB       0.048033
     47 H183         4.2560     0.4040    -1.7320 hc         1 DEB       0.048033
     48 HO9          2.4190     2.0830    -1.9310 ho         1 DEB       0.420000
     49 H201         2.0580    -1.5450    -3.7580 hc         1 DEB       0.041033
     50 H202         0.6170    -1.4260    -4.7390 hc         1 DEB       0.041033
     51 H203         1.7370    -0.0690    -4.6600 hc         1 DEB       0.041033
     52 HO1         -1.6460     1.1520    -4.8260 ho         1 DEB       0.403000
     53 H221        -3.4830    -1.6280    -2.8470 hc         1 DEB       0.038700
     54 H222        -2.3920    -1.4220    -4.2010 hc         1 DEB       0.038700
     55 H223        -1.8210    -2.1880    -2.7170 hc         1 DEB       0.038700
     56 H231        -4.0750    -1.9740     0.8140 hc         1 DEB       0.040367
     57 H232        -3.6320    -2.2970    -0.8510 hc         1 DEB       0.040367
     58 H233        -2.3880    -2.2610     0.3840 hc         1 DEB       0.040367
     59 H251        -3.7010     0.3420     3.7590 hc         1 DEB       0.044367
     60 H252        -2.1020     0.0510     4.4170 hc         1 DEB       0.044367
     61 H253        -2.4740     1.6040     3.6750 hc         1 DEB       0.044367
     62 HO6         -0.8720     2.0510     1.1450 ho         1 DEB       0.412000
     63 H271         0.7730    -2.2600     3.8560 hc         1 DEB       0.039033
     64 H272        -0.9250    -2.0450     3.5460 hc         1 DEB       0.039033
     65 H273         0.1690    -2.3620     2.2050 hc         1 DEB       0.039033
@<TRIPOS>BOND
     1     1     2 1   
     2     1    16 1   
     3     1    17 2   
     4     2     3 1   
     5     2    18 1   
     6     2    28 1   
     7     3     4 1   
     8     3    19 1   
     9     3    29 1   
    10     4     5 1   
    11     4    20 1   
    12     4    30 1   
    13     5     6 1   
    14     5    21 1   
    15     5    31 1   
    16     6     7 1   
    17     6    22 1   
    18     6    32 1   
    19     7     8 1   
    20     7    33 1   
    21     7    34 1   
    22     8     9 1   
    23     8    23 1   
    24     8    35 1   
    25     9    10 1   
    26     9    24 2   
    27    10    11 1   
    28    10    25 1   
    29    10    36 1   
    30    11    12 1   
    31    11    26 1   
    32    11    37 1   
    33    12    13 1   
    34    12    27 1   
    35    12    38 1   
    36    13    14 1   
    37    13    16 1   
    38    13    39 1   
    39    14    15 1   
    40    14    40 1   
    41    14    41 1   
    42    15    42 1   
    43    15    43 1   
    44    15    44 1   
    45    18    45 1   
    46    18    46 1   
    47    18    47 1   
    48    19    48 1   
    49    20    49 1   
    50    20    50 1   
    51    20    51 1   
    52    21    52 1   
    53    22    53 1   
    54    22    54 1   
    55    22    55 1   
    56    23    56 1   
    57    23    57 1   
    58    23    58 1   
    59    25    59 1   
    60    25    60 1   
    61    25    61 1   
    62    26    62 1   
    63    27    63 1   
    64    27    64 1   
    65    27    65 1   
@<TRIPOS>SUBSTRUCTURE
     1 DEB         1 TEMP              0 ****  ****    0 ROOT
