@<TRIPOS>MOLECULE
DEC
   30    29     1     0     0
SMALL
bcc


@<TRIPOS>ATOM
      1 C1           0.0030    -0.0010     5.7980 c          1 DEC       0.926600
      2 O1           1.2490    -0.0030     5.8300 o          1 DEC      -0.856050
      3 O2          -0.7600    -0.0030     6.7880 o          1 DEC      -0.856050
      4 C2          -0.6840     0.0060     4.4200 c3         1 DEC      -0.201900
      5 C3           0.2390     0.0130     3.2120 c3         1 DEC      -0.055400
      6 C4          -0.5190     0.0190     1.8900 c3         1 DEC      -0.079400
      7 C5           0.3970     0.0210     0.6710 c3         1 DEC      -0.075400
      8 C6          -0.3580     0.0220    -0.6520 c3         1 DEC      -0.075400
      9 C7           0.5570     0.0250    -1.8710 c3         1 DEC      -0.079400
     10 C8          -0.1990     0.0250    -3.1940 c3         1 DEC      -0.055400
     11 C9           0.7240     0.0250    -4.4010 c3         1 DEC      -0.201900
     12 C10          0.0400     0.0270    -5.7800 c          1 DEC       0.926600
     13 O3          -1.2060     0.0620    -5.8130 o          1 DEC      -0.856050
     14 O4           0.8040    -0.0070    -6.7690 o          1 DEC      -0.856050
     15 H21         -1.3500    -0.8640     4.3670 hc         1 DEC       0.013450
     16 H22         -1.3530     0.8740     4.3760 hc         1 DEC       0.013450
     17 H31          0.8960     0.8860     3.2550 hc         1 DEC       0.035450
     18 H32          0.8990    -0.8590     3.2460 hc         1 DEC       0.035450
     19 H41         -1.1810    -0.8540     1.8420 hc         1 DEC       0.021700
     20 H42         -1.1760     0.8950     1.8490 hc         1 DEC       0.021700
     21 H51          1.0540     0.8970     0.7140 hc         1 DEC       0.028700
     22 H52          1.0570    -0.8530     0.7120 hc         1 DEC       0.028700
     23 H61         -1.0150    -0.8540    -0.6960 hc         1 DEC       0.028700
     24 H62         -1.0190     0.8960    -0.6930 hc         1 DEC       0.028700
     25 H71          1.2160     0.9010    -1.8260 hc         1 DEC       0.021700
     26 H72          1.2190    -0.8480    -1.8270 hc         1 DEC       0.021700
     27 H81         -0.8580    -0.8480    -3.2320 hc         1 DEC       0.035450
     28 H82         -0.8590     0.8970    -3.2320 hc         1 DEC       0.035450
     29 H91          1.3910     0.8950    -4.3510 hc         1 DEC       0.013450
     30 H92          1.3930    -0.8420    -4.3520 hc         1 DEC       0.013450
@<TRIPOS>BOND
     1     1     2 1   
     2     1     3 1   
     3     1     4 1   
     4     4     5 1   
     5     4    15 1   
     6     4    16 1   
     7     5     6 1   
     8     5    17 1   
     9     5    18 1   
    10     6     7 1   
    11     6    19 1   
    12     6    20 1   
    13     7     8 1   
    14     7    21 1   
    15     7    22 1   
    16     8     9 1   
    17     8    23 1   
    18     8    24 1   
    19     9    10 1   
    20     9    25 1   
    21     9    26 1   
    22    10    11 1   
    23    10    27 1   
    24    10    28 1   
    25    11    12 1   
    26    11    29 1   
    27    11    30 1   
    28    12    13 1   
    29    12    14 1   
@<TRIPOS>SUBSTRUCTURE
     1 DEC         1 TEMP              0 ****  ****    0 ROOT
