@<TRIPOS>MOLECULE
DEC
   30    29     1     0     0
SMALL
No Charge or Current Charge


@<TRIPOS>ATOM
      1 C1           0.0310    -0.0110     5.7850 c          1 DEC       0.716000
      2 O1           0.6440    -0.9560     6.2590 o          1 DEC      -0.750750
      3 O2           0.0380     1.1100     6.2710 o          1 DEC      -0.750750
      4 C2          -0.7450    -0.2310     4.4730 c3         1 DEC      -0.201900
      5 C3           0.1720     0.0440     3.2560 c3         1 DEC      -0.055400
      6 C4          -0.5410    -0.1570     1.8990 c3         1 DEC      -0.079400
      7 C5           0.3760     0.1190     0.6870 c3         1 DEC      -0.075400
      8 C6          -0.3360    -0.0820    -0.6690 c3         1 DEC      -0.075400
      9 C7           0.5810     0.1930    -1.8810 c3         1 DEC      -0.079400
     10 C8          -0.1310    -0.0080    -3.2370 c3         1 DEC      -0.055400
     11 C9           0.7850     0.2680    -4.4540 c3         1 DEC      -0.201900
     12 C10          0.0090     0.0480    -5.7660 c          1 DEC       0.716000
     13 O3          -0.6040     0.9930    -6.2400 o          1 DEC      -0.750750
     14 O4           0.0020    -1.0730    -6.2520 o          1 DEC      -0.750750
     15 H21         -1.0570    -1.2800     4.3820 hc         1 DEC       0.013450
     16 H22         -1.5740     0.4830     4.3920 hc         1 DEC       0.013450
     17 H31          0.5490     1.0730     3.3150 hc         1 DEC       0.035450
     18 H32          1.0450    -0.6180     3.3050 hc         1 DEC       0.035450
     19 H41         -0.9160    -1.1860     1.8390 hc         1 DEC       0.021700
     20 H42         -1.4130     0.5070     1.8480 hc         1 DEC       0.021700
     21 H51          0.7520     1.1480     0.7470 hc         1 DEC       0.028700
     22 H52          1.2480    -0.5450     0.7370 hc         1 DEC       0.028700
     23 H61         -0.7120    -1.1110    -0.7280 hc         1 DEC       0.028700
     24 H62         -1.2080     0.5810    -0.7190 hc         1 DEC       0.028700
     25 H71          0.9570     1.2230    -1.8200 hc         1 DEC       0.021700
     26 H72          1.4530    -0.4700    -1.8300 hc         1 DEC       0.021700
     27 H81         -0.5090    -1.0360    -3.2960 hc         1 DEC       0.035450
     28 H82         -1.0050     0.6550    -3.2860 hc         1 DEC       0.035450
     29 H91          1.0970     1.3160    -4.3630 hc         1 DEC       0.013450
     30 H92          1.6140    -0.4470    -4.3740 hc         1 DEC       0.013450
@<TRIPOS>BOND
     1     1     2 1   
     2     1     3 1   
     3     1     4 1   
     4     4     5 1   
     5     4    15 1   
     6     4    16 1   
     7     5     6 1   
     8     5    17 1   
     9     5    18 1   
    10     6     7 1   
    11     6    19 1   
    12     6    20 1   
    13     7     8 1   
    14     7    21 1   
    15     7    22 1   
    16     8     9 1   
    17     8    23 1   
    18     8    24 1   
    19     9    10 1   
    20     9    25 1   
    21     9    26 1   
    22    10    11 1   
    23    10    27 1   
    24    10    28 1   
    25    11    12 1   
    26    11    29 1   
    27    11    30 1   
    28    12    13 1   
    29    12    14 1   
@<TRIPOS>SUBSTRUCTURE
     1 DEC         1 TEMP              0 ****  ****    0 ROOT
