@<TRIPOS>MOLECULE
DEE
   24    24     1     0     0
SMALL
No Charge or Current Charge


@<TRIPOS>ATOM
      1 O7          -1.8670     0.4450     1.1530 o          1 DEE      -0.502000
      2 C6          -0.7520     0.1030     0.7830 c          1 DEE       0.648700
      3 O8           0.2400    -0.2310     1.6680 os         1 DEE      -0.457100
      4 C11         -0.0470    -0.1760     3.0750 c3         1 DEE       0.168600
      5 C12          1.2290    -0.5960     3.8200 c3         1 DEE      -0.097100
      6 C1          -0.3480     0.0110    -0.6410 cc         1 DEE      -0.279600
      7 C4          -1.1620     0.2950    -1.7580 cc         1 DEE       0.324300
      8 C9          -2.5960     0.7450    -1.6890 c3         1 DEE      -0.125400
      9 C5           0.8740    -0.3620    -1.1410 cd         1 DEE      -0.060300
     10 C10          2.1560    -0.7830    -0.4620 c3         1 DEE      -0.034800
     11 N2           0.7280    -0.2820    -2.5300 na         1 DEE      -0.000200
     12 N3          -0.5460     0.1290    -2.9120 nd         1 DEE      -0.532800
     13 H111        -0.8660    -0.8590     3.3360 h1         1 DEE       0.048200
     14 H112        -0.3300     0.8420     3.3770 h1         1 DEE       0.048200
     15 H121         1.0620    -0.5700     4.9030 hc         1 DEE       0.044033
     16 H122         1.5210    -1.6160     3.5410 hc         1 DEE       0.044033
     17 H123         2.0560     0.0830     3.5830 hc         1 DEE       0.044033
     18 H91         -3.2170    -0.0040    -1.1850 hc         1 DEE       0.056700
     19 H92         -2.6820     1.6920    -1.1430 hc         1 DEE       0.056700
     20 H93         -3.0120     0.9010    -2.6920 hc         1 DEE       0.056700
     21 H101         2.0020    -1.6800     0.1500 hc         1 DEE       0.059033
     22 H102         2.9420    -1.0130    -1.1920 hc         1 DEE       0.059033
     23 H103         2.5350     0.0110     0.1910 hc         1 DEE       0.059033
     24 HN2          1.4480    -0.4920    -3.2200 hn         1 DEE       0.371000
@<TRIPOS>BOND
     1     1     2 2   
     2     2     3 1   
     3     2     6 1   
     4     3     4 1   
     5     4     5 1   
     6     4    13 1   
     7     4    14 1   
     8     5    15 1   
     9     5    16 1   
    10     5    17 1   
    11     6     7 1   
    12     6     9 2   
    13     7     8 1   
    14     7    12 2   
    15     8    18 1   
    16     8    19 1   
    17     8    20 1   
    18     9    10 1   
    19     9    11 1   
    20    10    21 1   
    21    10    22 1   
    22    10    23 1   
    23    11    12 1   
    24    11    24 1   
@<TRIPOS>SUBSTRUCTURE
     1 DEE         1 TEMP              0 ****  ****    0 ROOT
