@<TRIPOS>MOLECULE
DEE
   24    24     1     0     0
SMALL
abcg2


@<TRIPOS>ATOM
      1 O7          -1.8700     0.4110     1.2020 o          1 DEE      -0.502000
      2 C6          -0.7650     0.0830     0.8270 c          1 DEE       0.648700
      3 O8           0.2190    -0.2450     1.6580 os         1 DEE      -0.457100
      4 C11         -0.0380    -0.1940     3.0670 c3         1 DEE       0.168600
      5 C12          1.2420    -0.5620     3.7790 c3         1 DEE      -0.097100
      6 C1          -0.3630     0.0040    -0.5670 cc         1 DEE      -0.279600
      7 C4          -1.1750     0.3080    -1.6910 cc         1 DEE       0.324300
      8 C9          -2.5920     0.7600    -1.7290 c3         1 DEE      -0.125400
      9 C5           0.8690    -0.3700    -1.0970 cd         1 DEE      -0.060300
     10 C10          2.1500    -0.8100    -0.4880 c3         1 DEE      -0.034800
     11 N2           0.7180    -0.2690    -2.4180 na         1 DEE      -0.000200
     12 N3          -0.4960     0.1350    -2.8040 nd         1 DEE      -0.532800
     13 H111        -0.8400    -0.8900     3.3230 h1         1 DEE       0.048200
     14 H112        -0.3640     0.8090     3.3480 h1         1 DEE       0.048200
     15 H121         1.0750    -0.5310     4.8550 hc         1 DEE       0.044033
     16 H122         1.5710    -1.5680     3.5200 hc         1 DEE       0.044033
     17 H123         2.0440     0.1380     3.5440 hc         1 DEE       0.044033
     18 H91         -3.2580     0.0190    -1.2870 hc         1 DEE       0.056700
     19 H92         -2.7310     1.6860    -1.1710 hc         1 DEE       0.056700
     20 H93         -2.9040     0.9290    -2.7580 hc         1 DEE       0.056700
     21 H101         2.0130    -1.7180     0.0980 hc         1 DEE       0.059033
     22 H102         2.8920    -1.0130    -1.2590 hc         1 DEE       0.059033
     23 H103         2.5520    -0.0490     0.1780 hc         1 DEE       0.059033
     24 HN2          1.4180    -0.4700    -3.1160 hn         1 DEE       0.371000
@<TRIPOS>BOND
     1     1     2 2   
     2     2     3 1   
     3     2     6 1   
     4     3     4 1   
     5     4     5 1   
     6     4    13 1   
     7     4    14 1   
     8     5    15 1   
     9     5    16 1   
    10     5    17 1   
    11     6     7 1   
    12     6     9 2   
    13     7     8 1   
    14     7    12 2   
    15     8    18 1   
    16     8    19 1   
    17     8    20 1   
    18     9    10 1   
    19     9    11 1   
    20    10    21 1   
    21    10    22 1   
    22    10    23 1   
    23    11    12 1   
    24    11    24 1   
@<TRIPOS>SUBSTRUCTURE
     1 DEE         1 TEMP              0 ****  ****    0 ROOT
