@<TRIPOS>MOLECULE
DEG
   36    36     1     0     0
SMALL
No Charge or Current Charge


@<TRIPOS>ATOM
      1 C3          -0.5070    -0.0400     4.6310 c3         1 DEG      -0.074400
      2 C4          -0.7550    -1.1310     5.6900 c3         1 DEG      -0.088100
      3 C1          -0.6610     0.6150     2.1480 c3         1 DEG       0.165600
      4 C2          -0.9110    -0.4770     3.2050 c3         1 DEG      -0.083400
      5 C10         -1.5770     0.3440    -1.5430 c6         1 DEG       0.123300
      6 O2          -1.5770     1.2580    -2.6720 oh         1 DEG      -0.691000
      7 C7          -0.7960    -0.9460    -1.9350 c6         1 DEG       0.144300
      8 O3          -1.3280    -1.4860    -3.1580 oh         1 DEG      -0.653000
      9 C8           0.7260    -0.6390    -2.0990 c6         1 DEG       0.146300
     10 O4           1.4360    -1.8530    -2.4210 oh         1 DEG      -0.724000
     11 C5           1.2720     0.0370    -0.8030 c6         1 DEG       0.173300
     12 O5           0.4840     1.2200    -0.4810 os         1 DEG      -0.456000
     13 C6           2.7710     0.4660    -0.9430 c3         1 DEG       0.168600
     14 O6           3.2920     1.1320     0.2280 oh         1 DEG      -0.715000
     15 O1          -1.0710     0.0870     0.8760 os         1 DEG      -0.493000
     16 C9          -0.9220     0.9640    -0.2570 c6         1 DEG       0.356300
     17 H3'1        -1.0700     0.8610     4.9080 hc         1 DEG       0.039200
     18 H3'2         0.5560     0.2320     4.6400 hc         1 DEG       0.039200
     19 H4'1        -0.4540    -0.7750     6.6830 hc         1 DEG       0.032700
     20 H4'2        -1.8170    -1.4000     5.7300 hc         1 DEG       0.032700
     21 H4'3        -0.1770    -2.0340     5.4600 hc         1 DEG       0.032700
     22 H1'1        -1.2400     1.5130     2.4020 h1         1 DEG       0.035700
     23 H1'2         0.4050     0.8780     2.1400 h1         1 DEG       0.035700
     24 H2'1        -0.3460    -1.3770     2.9300 hc         1 DEG       0.048700
     25 H2'2        -1.9740    -0.7470     3.1970 hc         1 DEG       0.048700
     26 H2          -2.6110     0.0620    -1.2940 h1         1 DEG       0.047700
     27 HA          -2.0900     2.0570    -2.4080 ho         1 DEG       0.503000
     28 H3          -0.9130    -1.6790    -1.1220 h1         1 DEG       0.060700
     29 HB          -1.6350    -0.6940    -3.6580 ho         1 DEG       0.447000
     30 H4           0.8410     0.0830    -2.9230 h1         1 DEG       0.068700
     31 HC           0.8350    -2.3470    -3.0310 ho         1 DEG       0.521000
     32 H5           1.2050    -0.6760     0.0310 h1         1 DEG       0.067700
     33 H6C1         3.3660    -0.4320    -1.1540 h1         1 DEG       0.035700
     34 H6C2         2.8560     1.1240    -1.8190 h1         1 DEG       0.035700
     35 H6           4.2100     1.4180     0.0110 ho         1 DEG       0.502000
     36 H1          -1.4270     1.9170    -0.0340 h2         1 DEG       0.064700
@<TRIPOS>BOND
     1     1     2 1   
     2     1     4 1   
     3     1    17 1   
     4     1    18 1   
     5     2    19 1   
     6     2    20 1   
     7     2    21 1   
     8     3     4 1   
     9     3    15 1   
    10     3    22 1   
    11     3    23 1   
    12     4    24 1   
    13     4    25 1   
    14     5     6 1   
    15     5     7 1   
    16     5    16 1   
    17     5    26 1   
    18     6    27 1   
    19     7     8 1   
    20     7     9 1   
    21     7    28 1   
    22     8    29 1   
    23     9    10 1   
    24     9    11 1   
    25     9    30 1   
    26    10    31 1   
    27    11    12 1   
    28    11    13 1   
    29    11    32 1   
    30    12    16 1   
    31    13    14 1   
    32    13    33 1   
    33    13    34 1   
    34    14    35 1   
    35    15    16 1   
    36    16    36 1   
@<TRIPOS>SUBSTRUCTURE
     1 DEG         1 TEMP              0 ****  ****    0 ROOT
