@<TRIPOS>MOLECULE
DEG
   36    36     1     0     0
SMALL
bcc


@<TRIPOS>ATOM
      1 C3          -0.5480    -0.0870     4.5930 c3         1 DEG      -0.074400
      2 C4          -1.0930    -1.0180     5.6660 c3         1 DEG      -0.088100
      3 C1          -0.4720     0.4610     2.1340 c3         1 DEG       0.142400
      4 C2          -1.0000    -0.4860     3.1930 c3         1 DEG      -0.083400
      5 C10         -1.4810     0.3760    -1.4000 c6         1 DEG       0.100100
      6 O2          -1.5100     1.3330    -2.4280 oh         1 DEG      -0.568800
      7 C7          -0.7330    -0.8540    -1.9070 c6         1 DEG       0.121100
      8 O3          -1.2660    -1.3540    -3.1110 oh         1 DEG      -0.590800
      9 C8           0.7350    -0.5260    -2.1590 c6         1 DEG       0.123100
     10 O4           1.4680    -1.6880    -2.4710 oh         1 DEG      -0.601800
     11 C5           1.3530     0.0840    -0.8990 c6         1 DEG       0.150100
     12 O5           0.5900     1.1920    -0.4560 os         1 DEG      -0.409600
     13 C6           2.7590     0.5870    -1.1520 c3         1 DEG       0.145400
     14 O6           3.3100     1.0260     0.0680 oh         1 DEG      -0.592800
     15 O1          -0.9270     0.0250     0.8650 os         1 DEG      -0.446600
     16 C9          -0.7540     0.9330    -0.1720 c6         1 DEG       0.309900
     17 H3'1        -0.8680     0.9380     4.8020 hc         1 DEG       0.039200
     18 H3'2         0.5450    -0.0790     4.6360 hc         1 DEG       0.039200
     19 H4'1        -0.7530    -0.7240     6.6590 hc         1 DEG       0.032700
     20 H4'2        -2.1850    -1.0130     5.6750 hc         1 DEG       0.032700
     21 H4'3        -0.7710    -2.0480     5.4980 hc         1 DEG       0.032700
     22 H1'1        -0.8300     1.4820     2.3310 h1         1 DEG       0.035700
     23 H1'2         0.6230     0.4910     2.1690 h1         1 DEG       0.035700
     24 H2'1        -0.6580    -1.5030     2.9760 hc         1 DEG       0.048700
     25 H2'2        -2.0930    -0.5040     3.1510 hc         1 DEG       0.048700
     26 H2          -2.4960     0.0840    -1.0980 h1         1 DEG       0.047700
     27 HA          -2.0710     2.0650    -2.1510 ho         1 DEG       0.404000
     28 H3          -0.7770    -1.6170    -1.1190 h1         1 DEG       0.060700
     29 HB          -2.0620    -1.8550    -2.9110 ho         1 DEG       0.408000
     30 H4           0.8020     0.2080    -2.9760 h1         1 DEG       0.068700
     31 HC           1.0610    -2.0940    -3.2440 ho         1 DEG       0.422000
     32 H5           1.3950    -0.6940    -0.1220 h1         1 DEG       0.067700
     33 H6C1         3.3460    -0.2270    -1.5900 h1         1 DEG       0.035700
     34 H6C2         2.7200     1.3940    -1.8960 h1         1 DEG       0.035700
     35 H6           4.2110     1.3150    -0.1020 ho         1 DEG       0.403000
     36 H1          -1.1750     1.9120     0.1020 h2         1 DEG       0.064700
@<TRIPOS>BOND
     1     1     2 1   
     2     1     4 1   
     3     1    17 1   
     4     1    18 1   
     5     2    19 1   
     6     2    20 1   
     7     2    21 1   
     8     3     4 1   
     9     3    15 1   
    10     3    22 1   
    11     3    23 1   
    12     4    24 1   
    13     4    25 1   
    14     5     6 1   
    15     5     7 1   
    16     5    16 1   
    17     5    26 1   
    18     6    27 1   
    19     7     8 1   
    20     7     9 1   
    21     7    28 1   
    22     8    29 1   
    23     9    10 1   
    24     9    11 1   
    25     9    30 1   
    26    10    31 1   
    27    11    12 1   
    28    11    13 1   
    29    11    32 1   
    30    12    16 1   
    31    13    14 1   
    32    13    33 1   
    33    13    34 1   
    34    14    35 1   
    35    15    16 1   
    36    16    36 1   
@<TRIPOS>SUBSTRUCTURE
     1 DEG         1 TEMP              0 ****  ****    0 ROOT
