@<TRIPOS>MOLECULE
DEH
   42    45     1     0     0
SMALL
bcc


@<TRIPOS>ATOM
      1 C2          -2.4200    -1.2940     0.4040 ca         1 DEH      -0.110000
      2 C3          -3.7910    -1.4210     0.3670 ca         1 DEH       0.135100
      3 C5          -4.5830    -0.3060     0.0240 ca         1 DEH       0.102100
      4 C8          -3.9750     0.9060    -0.2580 ca         1 DEH      -0.169000
      5 C9          -2.5910     1.0300    -0.2200 ca         1 DEH      -0.061300
      6 C10         -1.9040     2.3310    -0.5020 c6         1 DEH      -0.050100
      7 C11         -0.7040     2.4540     0.4060 c6         1 DEH       0.011300
      8 N12          0.2000     1.3060     0.2020 na         1 DEH       0.024900
      9 C14         -0.3490     0.0450     0.0810 ca         1 DEH       0.042700
     10 C16          0.5020    -1.0120    -0.0790 ca         1 DEH      -0.106000
     11 C17          1.8990    -0.8480    -0.0980 ca         1 DEH       0.018000
     12 C25          2.7950    -1.9130    -0.2510 ca         1 DEH      -0.123000
     13 C24          4.1480    -1.6710    -0.2590 ca         1 DEH      -0.091000
     14 C21          4.6680    -0.3740    -0.1210 ca         1 DEH       0.062100
     15 O22          5.9740    -0.0620    -0.1190 os         1 DEH      -0.331900
     16 C23          6.9340    -1.1040    -0.1860 c3         1 DEH       0.126700
     17 C19          3.8050     0.7040     0.0240 ca         1 DEH       0.164100
     18 O20          4.2360     1.9600     0.1530 oh         1 DEH      -0.485100
     19 C18          2.4140     0.4690     0.0380 ca         1 DEH      -0.108000
     20 C1          -1.8070    -0.0730     0.1030 ca         1 DEH      -0.089000
     21 C13          1.5020     1.5150     0.1800 ca         1 DEH       0.055700
     22 O6          -5.9050    -0.5340     0.0240 os         1 DEH      -0.325900
     23 C7          -6.7830     0.5430    -0.2520 c3         1 DEH       0.125700
     24 O4          -4.3500    -2.6070     0.6710 oh         1 DEH      -0.479100
     25 H2          -1.8330    -2.1560     0.6960 ha         1 DEH       0.158000
     26 H8          -4.5680     1.7770    -0.5050 ha         1 DEH       0.153000
     27 H10         -1.5920     2.3950    -1.5490 hc         1 DEH       0.086700
     28 H10A        -2.5700     3.1740    -0.3150 hc         1 DEH       0.086700
     29 H11         -0.1380     3.3610     0.2100 h1         1 DEH       0.091700
     30 H11A        -1.0080     2.4510     1.4530 h1         1 DEH       0.091700
     31 H16          0.0940    -2.0040    -0.2140 ha         1 DEH       0.182000
     32 H25          2.4240    -2.9230    -0.3600 ha         1 DEH       0.166000
     33 H24          4.8230    -2.5090    -0.3750 ha         1 DEH       0.164000
     34 H23          7.9060    -0.6260    -0.1120 h1         1 DEH       0.059033
     35 H23A         6.8190    -1.8090     0.6400 h1         1 DEH       0.059033
     36 H23B         6.8770    -1.6450    -1.1320 h1         1 DEH       0.059033
     37 HO20         5.2010     1.9980     0.1360 ho         1 DEH       0.477000
     38 H13          1.8220     2.5410     0.2830 h4         1 DEH       0.201000
     39 H7          -7.7910     0.1460    -0.1740 h1         1 DEH       0.055700
     40 H7A         -6.6610     1.3530     0.4710 h1         1 DEH       0.055700
     41 H7B         -6.6330     0.9370    -1.2590 h1         1 DEH       0.055700
     42 HO4         -5.3120    -2.5480     0.6230 ho         1 DEH       0.459000
@<TRIPOS>BOND
     1     1     2 ar  
     2     1    20 ar  
     3     1    25 1   
     4     2     3 ar  
     5     2    24 1   
     6     3     4 ar  
     7     3    22 1   
     8     4     5 ar  
     9     4    26 1   
    10     5     6 1   
    11     5    20 ar  
    12     6     7 1   
    13     6    27 1   
    14     6    28 1   
    15     7     8 1   
    16     7    29 1   
    17     7    30 1   
    18     8     9 1   
    19     8    21 2   
    20     9    10 ar  
    21     9    20 1   
    22    10    11 ar  
    23    10    31 1   
    24    11    12 ar  
    25    11    19 ar  
    26    12    13 ar  
    27    12    32 1   
    28    13    14 ar  
    29    13    33 1   
    30    14    15 1   
    31    14    17 ar  
    32    15    16 1   
    33    16    34 1   
    34    16    35 1   
    35    16    36 1   
    36    17    18 1   
    37    17    19 ar  
    38    18    37 1   
    39    19    21 ar  
    40    21    38 1   
    41    22    23 1   
    42    23    39 1   
    43    23    40 1   
    44    23    41 1   
    45    24    42 1   
@<TRIPOS>SUBSTRUCTURE
     1 DEH         1 TEMP              0 ****  ****    0 ROOT
