@<TRIPOS>MOLECULE
DEH
   42    45     1     0     0
SMALL
No Charge or Current Charge


@<TRIPOS>ATOM
      1 C2          -2.4020    -1.3610     0.1440 ca         1 DEH      -0.092000
      2 C3          -3.7980    -1.4990     0.1110 ca         1 DEH       0.135100
      3 C5          -4.6270    -0.3710    -0.0320 ca         1 DEH       0.102100
      4 C8          -4.0380     0.9030    -0.1400 ca         1 DEH      -0.151000
      5 C9          -2.6370     1.0460    -0.1000 ca         1 DEH      -0.061300
      6 C10         -2.0440     2.4440    -0.2530 c6         1 DEH      -0.050100
      7 C11         -0.6790     2.5440     0.4410 c6         1 DEH       0.040600
      8 N12          0.1720     1.4020     0.0550 na         1 DEH       0.046300
      9 C14         -0.3660     0.0970     0.0630 ca         1 DEH      -0.008000
     10 C16          0.5400    -0.9970     0.0910 ca         1 DEH      -0.088000
     11 C17          1.9320    -0.7910     0.0410 ca         1 DEH       0.018000
     12 C25          2.8110    -1.8910     0.0620 ca         1 DEH      -0.105000
     13 C24          4.2020    -1.6930    -0.0100 ca         1 DEH      -0.073000
     14 C21          4.7240    -0.3840    -0.1090 ca         1 DEH       0.062100
     15 O22          6.0840    -0.1290    -0.1860 os         1 DEH      -0.355100
     16 C23          7.0690    -1.1810    -0.1700 c3         1 DEH       0.149900
     17 C19          3.8410     0.7160    -0.1330 ca         1 DEH       0.164100
     18 O20          4.3610     1.9780    -0.2280 oh         1 DEH      -0.524100
     19 C18          2.4470     0.5150    -0.0550 ca         1 DEH      -0.108000
     20 C1          -1.7880    -0.0840     0.0410 ca         1 DEH      -0.089000
     21 C13          1.5490     1.5980    -0.0730 ca         1 DEH       0.073700
     22 O6          -5.9980    -0.5650    -0.0630 os         1 DEH      -0.349100
     23 C7          -6.9280     0.5260    -0.2060 c3         1 DEH       0.148900
     24 O4          -4.3580    -2.7420     0.2180 oh         1 DEH      -0.518100
     25 H2          -1.8290    -2.2710     0.2640 ha         1 DEH       0.140000
     26 H8          -4.6520     1.7910    -0.2600 ha         1 DEH       0.135000
     27 H10         -1.9320     2.6720    -1.3220 hc         1 DEH       0.086700
     28 H10A        -2.7210     3.2050     0.1600 hc         1 DEH       0.086700
     29 H11         -0.1940     3.4950     0.1780 h1         1 DEH       0.091700
     30 H11A        -0.8150     2.5220     1.5310 h1         1 DEH       0.091700
     31 H16          0.1950    -2.0230     0.1220 ha         1 DEH       0.164000
     32 H25          2.4200    -2.9040     0.1320 ha         1 DEH       0.148000
     33 H24          4.8530    -2.5620     0.0090 ha         1 DEH       0.146000
     34 H23          8.0790    -0.7580    -0.2400 h1         1 DEH       0.059033
     35 H23A         7.0090    -1.7590     0.7610 h1         1 DEH       0.059033
     36 H23B         6.9290    -1.8620    -1.0190 h1         1 DEH       0.059033
     37 HO20         5.3390     1.8740    -0.2670 ho         1 DEH       0.516000
     38 H13          1.9010     2.6270    -0.1500 h4         1 DEH       0.183000
     39 H7          -7.9580     0.1510    -0.2040 h1         1 DEH       0.055700
     40 H7A         -6.8250     1.2380     0.6240 h1         1 DEH       0.055700
     41 H7B         -6.7620     1.0590    -1.1500 h1         1 DEH       0.055700
     42 HO4         -5.3330    -2.6200     0.1720 ho         1 DEH       0.498000
@<TRIPOS>BOND
     1     1     2 ar  
     2     1    20 ar  
     3     1    25 1   
     4     2     3 ar  
     5     2    24 1   
     6     3     4 ar  
     7     3    22 1   
     8     4     5 ar  
     9     4    26 1   
    10     5     6 1   
    11     5    20 ar  
    12     6     7 1   
    13     6    27 1   
    14     6    28 1   
    15     7     8 1   
    16     7    29 1   
    17     7    30 1   
    18     8     9 1   
    19     8    21 2   
    20     9    10 ar  
    21     9    20 1   
    22    10    11 ar  
    23    10    31 1   
    24    11    12 ar  
    25    11    19 ar  
    26    12    13 ar  
    27    12    32 1   
    28    13    14 ar  
    29    13    33 1   
    30    14    15 1   
    31    14    17 ar  
    32    15    16 1   
    33    16    34 1   
    34    16    35 1   
    35    16    36 1   
    36    17    18 1   
    37    17    19 ar  
    38    18    37 1   
    39    19    21 ar  
    40    21    38 1   
    41    22    23 1   
    42    23    39 1   
    43    23    40 1   
    44    23    41 1   
    45    24    42 1   
@<TRIPOS>SUBSTRUCTURE
     1 DEH         1 TEMP              0 ****  ****    0 ROOT
