@<TRIPOS>MOLECULE
DEI
   13    12     1     0     0
SMALL
bcc


@<TRIPOS>ATOM
      1 CAA          3.2520     0.9600    -0.0210 c3         1 DEI      -0.018000
      2 SAF          2.1230    -0.4500     0.0120 ss         1 DEI      -0.323700
      3 CAE          0.5750     0.3720     0.0280 c2         1 DEI      -0.161400
      4 CAH         -0.5780    -0.3000    -0.0110 ce         1 DEI       0.024900
      5 CAG         -1.9490     0.3500     0.0100 c          1 DEI       0.903800
      6 OAB         -2.8820    -0.4860    -0.0280 o          1 DEI      -0.812800
      7 OAC         -2.0290     1.5850     0.0590 o          1 DEI      -0.812800
      8 OAD         -0.6090    -1.6450    -0.0720 oh         1 DEI      -0.530100
      9 HAA          4.2630     0.5570    -0.0200 h1         1 DEI       0.043033
     10 HAAA         3.1170     1.5580    -0.9200 h1         1 DEI       0.043033
     11 HAAB         3.1290     1.5880     0.8600 h1         1 DEI       0.043033
     12 HAE          0.5740     1.4520     0.0790 h4         1 DEI       0.154000
     13 HOAD        -1.5660    -1.8440    -0.0920 ho         1 DEI       0.448000
@<TRIPOS>BOND
     1     1     2 1   
     2     1     9 1   
     3     1    10 1   
     4     1    11 1   
     5     2     3 1   
     6     3     4 2   
     7     3    12 1   
     8     4     5 1   
     9     4     8 1   
    10     5     6 1   
    11     5     7 1   
    12     8    13 1   
@<TRIPOS>SUBSTRUCTURE
     1 DEI         1 TEMP              0 ****  ****    0 ROOT
