@<TRIPOS>MOLECULE
DEI
   13    12     1     0     0
SMALL
No Charge or Current Charge


@<TRIPOS>ATOM
      1 CAA          3.3170     0.9940    -0.0080 c3         1 DEI       0.029900
      2 SAF          2.1830    -0.4660    -0.0390 ss         1 DEI      -0.371600
      3 CAE          0.5690     0.3210    -0.0080 c2         1 DEI      -0.211400
      4 CAH         -0.6080    -0.3530    -0.0180 ce         1 DEI       0.024900
      5 CAG         -1.9680     0.3530     0.0090 c          1 DEI       0.693200
      6 OAB         -2.9660    -0.3580    -0.0040 o          1 DEI      -0.707500
      7 OAC         -2.0160     1.5760     0.0410 o          1 DEI      -0.707500
      8 OAD         -0.6680    -1.7230    -0.0540 oh         1 DEI      -0.569100
      9 HAA          4.3590     0.6520    -0.0230 h1         1 DEI       0.043033
     10 HAAA         3.1320     1.6260    -0.8850 h1         1 DEI       0.043033
     11 HAAB         3.1430     1.5790     0.9040 h1         1 DEI       0.043033
     12 HAE          0.5800     1.4120     0.0210 h4         1 DEI       0.204000
     13 HOAD        -1.6370    -1.9160    -0.0530 ho         1 DEI       0.487000
@<TRIPOS>BOND
     1     1     2 1   
     2     1     9 1   
     3     1    10 1   
     4     1    11 1   
     5     2     3 1   
     6     3     4 2   
     7     3    12 1   
     8     4     5 1   
     9     4     8 1   
    10     5     6 1   
    11     5     7 1   
    12     8    13 1   
@<TRIPOS>SUBSTRUCTURE
     1 DEI         1 TEMP              0 ****  ****    0 ROOT
