@<TRIPOS>MOLECULE
DEJ
   76    78     1     0     0
SMALL
abcg2


@<TRIPOS>ATOM
      1 C01         -0.9090    -3.0530    -2.1870 c3         1 DEJ      -0.109100
      2 C02         -2.0220    -2.5510    -1.2760 c3         1 DEJ       0.174500
      3 C03         -2.1870    -3.4730    -0.0670 c3         1 DEJ      -0.109100
      4 C05         -2.6690    -0.5200    -0.0410 c3         1 DEJ       0.113500
      5 C06         -2.2740     0.9390     0.2060 c3         1 DEJ       0.062600
      6 C08          0.3330     1.5130    -0.6390 c3         1 DEJ       0.048600
      7 C09          1.7960     1.7790    -0.2930 c3         1 DEJ       0.157700
      8 C10          2.6200     1.9630    -1.5770 c3         1 DEJ      -0.019200
      9 C11          4.0390     2.3440    -1.3100 cc         1 DEJ      -0.137400
     10 C12          4.5160     3.6110    -1.1220 cd         1 DEJ      -0.164100
     11 C14          6.2880     2.2860    -0.8790 ca         1 DEJ      -0.049200
     12 C15          5.1670     1.4720    -1.1590 ca         1 DEJ      -0.089800
     13 C16          5.3440     0.0860    -1.2470 ca         1 DEJ      -0.057000
     14 C17          6.6050    -0.4440    -1.0520 ca         1 DEJ      -0.146000
     15 C18          7.7040     0.3840    -0.7680 ca         1 DEJ      -0.090000
     16 C19          7.5620     1.7550    -0.6790 ca         1 DEJ      -0.133000
     17 C24          3.0070    -2.6010     1.5200 c3         1 DEJ       0.225000
     18 C25          4.0120    -3.0770     0.4780 c3         1 DEJ      -0.109100
     19 C26          1.6670    -3.3130     1.3740 c3         1 DEJ      -0.109100
     20 C27          3.5600    -2.8380     2.9200 c3         1 DEJ      -0.109100
     21 C28         -4.0730    -0.4930    -0.6480 c          1 DEJ       0.595100
     22 C32         -7.1450     0.3500     0.5180 ca         1 DEJ      -0.167300
     23 C33         -6.7780     1.6590     0.2170 ca         1 DEJ      -0.057000
     24 C34         -7.4370     2.7040     0.8410 ca         1 DEJ      -0.166000
     25 C35         -8.4460     2.4050     1.7480 ca         1 DEJ       0.338900
     26 C37         -8.1670     0.1700     1.4400 ca         1 DEJ       0.340900
     27 N04         -1.7470    -1.1550    -0.9490 n7         1 DEJ      -0.859400
     28 N13          5.8570     3.5790    -0.8610 na         1 DEJ      -0.223700
     29 N20          2.3550     0.8020     0.6180 ns         1 DEJ      -0.495900
     30 N36         -8.8080     1.1640     2.0450 nb         1 DEJ      -0.666000
     31 O22          1.9020    -1.0660    -0.5880 o          1 DEJ      -0.567000
     32 O23          2.8570    -1.1600     1.4660 os         1 DEJ      -0.475100
     33 O29         -4.2750    -0.1140    -1.7910 o          1 DEJ      -0.582100
     34 S07         -0.5970     1.1280     0.8770 ss         1 DEJ      -0.447000
     35 H1           0.0400    -3.1050    -1.6490 hc         1 DEJ       0.038200
     36 H2          -1.1340    -4.0520    -2.5610 hc         1 DEJ       0.038200
     37 H3          -0.7740    -2.3900    -3.0410 hc         1 DEJ       0.038200
     38 H4          -2.9540    -2.5760    -1.8500 h1         1 DEJ       0.062700
     39 H5          -3.0550    -3.2130     0.5390 hc         1 DEJ       0.038200
     40 H6          -2.3210    -4.5070    -0.3900 hc         1 DEJ       0.038200
     41 H7          -1.3050    -3.4350     0.5770 hc         1 DEJ       0.038200
     42 H8          -2.7160    -1.0170     0.9400 h1         1 DEJ       0.027700
     43 H9          -2.3480     1.5200    -0.7140 h1         1 DEJ       0.080200
     44 H10         -2.9580     1.3810     0.9330 h1         1 DEJ       0.080200
     45 H11         -0.0850     2.4150    -1.0890 h1         1 DEJ       0.081200
     46 H12          0.2290     0.6990    -1.3530 h1         1 DEJ       0.081200
     47 H13          1.8340     2.7210     0.2590 h1         1 DEJ       0.054700
     48 H14          2.5720     1.0500    -2.1730 hc         1 DEJ       0.061200
     49 H15          2.1340     2.7410    -2.1710 hc         1 DEJ       0.061200
     50 H16          3.9890     4.5520    -1.1590 h4         1 DEJ       0.209000
     51 H17          4.5070    -0.5660    -1.4650 ha         1 DEJ       0.126000
     52 H18          6.7520    -1.5140    -1.1190 ha         1 DEJ       0.109000
     53 H19          8.6800    -0.0600    -0.6170 ha         1 DEJ       0.109000
     54 H20          8.4100     2.3940    -0.4620 ha         1 DEJ       0.111000
     55 H21          4.9570    -2.5390     0.5720 hc         1 DEJ       0.048589
     56 H22          4.2150    -4.1370     0.6320 hc         1 DEJ       0.048589
     57 H23          3.6420    -2.9540    -0.5390 hc         1 DEJ       0.048589
     58 H24          1.7910    -4.3610     1.6500 hc         1 DEJ       0.048589
     59 H25          0.9170    -2.8820     2.0400 hc         1 DEJ       0.048589
     60 H26          1.2880    -3.2760     0.3560 hc         1 DEJ       0.048589
     61 H27          4.5030    -2.3120     3.0750 hc         1 DEJ       0.048589
     62 H28          2.8540    -2.5110     3.6850 hc         1 DEJ       0.048589
     63 H29          3.7420    -3.9020     3.0690 hc         1 DEJ       0.048589
     64 H30         -6.9220    -1.7560     0.2180 h1         1 DEJ       0.067200
     65 H31         -6.5650    -0.7910    -1.2020 h1         1 DEJ       0.067200
     66 H32         -5.9920     1.8590    -0.5010 ha         1 DEJ       0.131000
     67 H33         -7.1800     3.7330     0.6310 ha         1 DEJ       0.125000
     68 H34         -8.9800     3.2020     2.2520 h4         1 DEJ       0.019100
     69 H35         -8.4830    -0.8360     1.7030 h4         1 DEJ       0.015100
     70 H36         -0.8150    -1.0910    -0.5480 hn         1 DEJ       0.441000
     71 H38          6.4310     4.3870    -0.6920 hn         1 DEJ       0.349000
     72 H39          2.7750     1.1460     1.4650 hn         1 DEJ       0.332500
     73 H40         -4.7930    -1.1430     1.1320 hn         1 DEJ       0.313500
     74 N30         -5.0470    -0.8760     0.1950 ns         1 DEJ      -0.511900
     75 C21          2.3360    -0.5290     0.4130 c          1 DEJ       0.658100
     76 C31         -6.4570    -0.8280    -0.1180 c3         1 DEJ       0.150300
@<TRIPOS>BOND
     1     1     2 1   
     2     1    35 1   
     3     1    36 1   
     4     1    37 1   
     5     2     3 1   
     6     2    27 1   
     7     2    38 1   
     8     3    39 1   
     9     3    40 1   
    10     3    41 1   
    11     4     5 1   
    12     4    21 1   
    13     4    27 1   
    14     4    42 1   
    15     5    34 1   
    16     5    43 1   
    17     5    44 1   
    18     6     7 1   
    19     6    34 1   
    20     6    45 1   
    21     6    46 1   
    22     7     8 1   
    23     7    29 1   
    24     7    47 1   
    25     8     9 1   
    26     8    48 1   
    27     8    49 1   
    28     9    10 2   
    29     9    12 1   
    30    10    28 1   
    31    10    50 1   
    32    11    12 ar  
    33    11    16 ar  
    34    11    28 1   
    35    12    13 ar  
    36    13    14 ar  
    37    13    51 1   
    38    14    15 ar  
    39    14    52 1   
    40    15    16 ar  
    41    15    53 1   
    42    16    54 1   
    43    17    18 1   
    44    17    19 1   
    45    17    20 1   
    46    17    32 1   
    47    18    55 1   
    48    18    56 1   
    49    18    57 1   
    50    19    58 1   
    51    19    59 1   
    52    19    60 1   
    53    20    61 1   
    54    20    62 1   
    55    20    63 1   
    56    21    33 2   
    57    21    74 1   
    58    22    23 ar  
    59    22    26 ar  
    60    22    76 1   
    61    23    24 ar  
    62    23    66 1   
    63    24    25 ar  
    64    24    67 1   
    65    25    30 ar  
    66    25    68 1   
    67    26    30 ar  
    68    26    69 1   
    69    27    70 1   
    70    28    71 1   
    71    29    72 1   
    72    29    75 1   
    73    31    75 2   
    74    32    75 1   
    75    64    76 1   
    76    65    76 1   
    77    73    74 1   
    78    74    76 1   
@<TRIPOS>SUBSTRUCTURE
     1 DEJ         1 TEMP              0 ****  ****    0 ROOT
