@<TRIPOS>MOLECULE
DEJ
   76    78     1     0     0
SMALL
No Charge or Current Charge


@<TRIPOS>ATOM
      1 C01         -1.1140    -2.9320    -1.9890 c3         1 DEJ      -0.109100
      2 C02         -2.1200    -2.3170    -0.9990 c3         1 DEJ       0.174500
      3 C03         -2.0340    -2.9840     0.3900 c3         1 DEJ      -0.109100
      4 C05         -2.8290    -0.0150    -0.1630 c3         1 DEJ       0.113500
      5 C06         -2.3120     1.4420    -0.0810 c3         1 DEJ       0.062600
      6 C08          0.4660     1.6420    -0.7210 c3         1 DEJ       0.048600
      7 C09          1.9520     1.8220    -0.3140 c3         1 DEJ       0.157700
      8 C10          2.8710     1.9860    -1.5520 c3         1 DEJ      -0.019200
      9 C11          4.3100     2.2720    -1.1990 cc         1 DEJ      -0.137400
     10 C12          4.8530     3.4980    -0.8260 cd         1 DEJ      -0.164100
     11 C14          6.5170     2.0080    -0.7660 ca         1 DEJ      -0.049200
     12 C15          5.3960     1.3320    -1.1580 ca         1 DEJ      -0.089800
     13 C16          5.4270    -0.0390    -1.4560 ca         1 DEJ      -0.057000
     14 C17          6.6600    -0.7150    -1.3340 ca         1 DEJ      -0.146000
     15 C18          7.8190    -0.0180    -0.9220 ca         1 DEJ      -0.090000
     16 C19          7.7540     1.3620    -0.6340 ca         1 DEJ      -0.133000
     17 C24          3.1790    -2.6220     1.5070 c3         1 DEJ       0.225000
     18 C25          4.1670    -3.0670     0.3990 c3         1 DEJ      -0.109100
     19 C26          1.8090    -3.3420     1.4230 c3         1 DEJ      -0.109100
     20 C27          3.8090    -2.8560     2.8980 c3         1 DEJ      -0.109100
     21 C28         -4.2810    -0.0440    -0.7530 c          1 DEJ       0.595100
     22 C32         -7.4630     0.1070     0.4080 ca         1 DEJ      -0.167300
     23 C33         -7.5590     1.4390    -0.0360 ca         1 DEJ      -0.057000
     24 C34         -8.3580     2.3280     0.6990 ca         1 DEJ      -0.166000
     25 C35         -9.0310     1.8630     1.8410 ca         1 DEJ       0.338900
     26 C37         -8.1730    -0.2720     1.5640 ca         1 DEJ       0.340900
     27 N04         -1.8420    -0.8720    -0.9020 n7         1 DEJ      -0.859400
     28 N13          6.2340     3.3430    -0.5490 na         1 DEJ      -0.223700
     29 N20          2.4280     0.7710     0.5970 ns         1 DEJ      -0.495900
     30 N36         -8.9460     0.5840     2.2740 nb         1 DEJ      -0.666000
     31 O22          2.0240    -1.0990    -0.6700 o          1 DEJ      -0.567000
     32 O23          2.9850    -1.1900     1.4390 os         1 DEJ      -0.475100
     33 O29         -4.6010     0.5370    -1.7850 o          1 DEJ      -0.582100
     34 S07         -0.6550     1.5460     0.7590 ss         1 DEJ      -0.447000
     35 H1          -0.0840    -2.8070    -1.6340 hc         1 DEJ       0.038200
     36 H2          -1.3050    -4.0040    -2.1140 hc         1 DEJ       0.038200
     37 H3          -1.2000    -2.4560    -2.9730 hc         1 DEJ       0.038200
     38 H4          -3.1280    -2.4880    -1.4040 h1         1 DEJ       0.062700
     39 H5          -2.8430    -2.6420     1.0460 hc         1 DEJ       0.038200
     40 H6          -2.1230    -4.0730     0.2980 hc         1 DEJ       0.038200
     41 H7          -1.0780    -2.7590     0.8750 hc         1 DEJ       0.038200
     42 H8          -2.9030    -0.3690     0.8740 h1         1 DEJ       0.027700
     43 H9          -2.2450     1.8730    -1.0890 h1         1 DEJ       0.080200
     44 H10         -3.0320     2.0400     0.4930 h1         1 DEJ       0.080200
     45 H11          0.1590     2.4970    -1.3370 h1         1 DEJ       0.081200
     46 H12          0.3520     0.7370    -1.3300 h1         1 DEJ       0.081200
     47 H13          2.0100     2.7640     0.2480 h1         1 DEJ       0.054700
     48 H14          2.8080     1.0870    -2.1760 hc         1 DEJ       0.061200
     49 H15          2.4870     2.8070    -2.1690 hc         1 DEJ       0.061200
     50 H16          4.3580     4.4610    -0.7310 h4         1 DEJ       0.209000
     51 H17          4.5330    -0.5670    -1.7760 ha         1 DEJ       0.126000
     52 H18          6.7180    -1.7780    -1.5590 ha         1 DEJ       0.109000
     53 H19          8.7660    -0.5460    -0.8300 ha         1 DEJ       0.109000
     54 H20          8.6410     1.9080    -0.3220 ha         1 DEJ       0.111000
     55 H21          5.0740    -2.4520     0.4220 hc         1 DEJ       0.048589
     56 H22          4.4650    -4.1110     0.5520 hc         1 DEJ       0.048589
     57 H23          3.7250    -2.9980    -0.6000 hc         1 DEJ       0.048589
     58 H24          1.9140    -4.3960     1.7030 hc         1 DEJ       0.048589
     59 H25          1.0860    -2.8810     2.1060 hc         1 DEJ       0.048589
     60 H26          1.3960    -3.3170     0.4090 hc         1 DEJ       0.048589
     61 H27          4.7590    -2.3150     2.9910 hc         1 DEJ       0.048589
     62 H28          3.1390    -2.5090     3.6930 hc         1 DEJ       0.048589
     63 H29          4.0090    -3.9210     3.0620 hc         1 DEJ       0.048589
     64 H30         -6.9330    -1.9240    -0.0830 h1         1 DEJ       0.067200
     65 H31         -6.7590    -0.7820    -1.4240 h1         1 DEJ       0.067200
     66 H32         -7.0270     1.7740    -0.9250 ha         1 DEJ       0.131000
     67 H33         -8.4600     3.3660     0.3930 ha         1 DEJ       0.125000
     68 H34         -9.6580     2.5340     2.4280 h4         1 DEJ       0.019100
     69 H35         -8.1230    -1.2940     1.9370 h4         1 DEJ       0.015100
     70 H36         -0.9260    -0.7510    -0.4530 hn         1 DEJ       0.441000
     71 H38          6.8840     4.0650    -0.2530 hn         1 DEJ       0.349000
     72 H39          2.8100     1.0450     1.4910 hn         1 DEJ       0.332500
     73 H40         -4.8540    -1.2080     0.8320 hn         1 DEJ       0.313500
     74 N30         -5.1990    -0.7590    -0.0080 ns         1 DEJ      -0.511900
     75 C21          2.4340    -0.5700     0.3500 c          1 DEJ       0.658100
     76 C31         -6.6150    -0.9050    -0.3420 c3         1 DEJ       0.150300
@<TRIPOS>BOND
     1     1     2 1   
     2     1    35 1   
     3     1    36 1   
     4     1    37 1   
     5     2     3 1   
     6     2    27 1   
     7     2    38 1   
     8     3    39 1   
     9     3    40 1   
    10     3    41 1   
    11     4     5 1   
    12     4    21 1   
    13     4    27 1   
    14     4    42 1   
    15     5    34 1   
    16     5    43 1   
    17     5    44 1   
    18     6     7 1   
    19     6    34 1   
    20     6    45 1   
    21     6    46 1   
    22     7     8 1   
    23     7    29 1   
    24     7    47 1   
    25     8     9 1   
    26     8    48 1   
    27     8    49 1   
    28     9    10 2   
    29     9    12 1   
    30    10    28 1   
    31    10    50 1   
    32    11    12 ar  
    33    11    16 ar  
    34    11    28 1   
    35    12    13 ar  
    36    13    14 ar  
    37    13    51 1   
    38    14    15 ar  
    39    14    52 1   
    40    15    16 ar  
    41    15    53 1   
    42    16    54 1   
    43    17    18 1   
    44    17    19 1   
    45    17    20 1   
    46    17    32 1   
    47    18    55 1   
    48    18    56 1   
    49    18    57 1   
    50    19    58 1   
    51    19    59 1   
    52    19    60 1   
    53    20    61 1   
    54    20    62 1   
    55    20    63 1   
    56    21    33 2   
    57    21    74 1   
    58    22    23 ar  
    59    22    26 ar  
    60    22    76 1   
    61    23    24 ar  
    62    23    66 1   
    63    24    25 ar  
    64    24    67 1   
    65    25    30 ar  
    66    25    68 1   
    67    26    30 ar  
    68    26    69 1   
    69    27    70 1   
    70    28    71 1   
    71    29    72 1   
    72    29    75 1   
    73    31    75 2   
    74    32    75 1   
    75    64    76 1   
    76    65    76 1   
    77    73    74 1   
    78    74    76 1   
@<TRIPOS>SUBSTRUCTURE
     1 DEJ         1 TEMP              0 ****  ****    0 ROOT
