@<TRIPOS>MOLECULE
DEM
   37    36     1     0     0
SMALL
No Charge or Current Charge


@<TRIPOS>ATOM
      1 CM          -0.2100     0.3320    -6.3180 c3         1 DEM       0.378600
      2 C1           0.1670     0.3440    -3.9170 c3         1 DEM       0.157600
      3 C2          -0.5630    -0.0250    -2.6120 c3         1 DEM      -0.081400
      4 C3           0.2650     0.2930    -1.3470 c3         1 DEM      -0.074400
      5 C4          -0.4650    -0.0760    -0.0370 c3         1 DEM      -0.074400
      6 C5           0.3640     0.2420     1.2270 c3         1 DEM      -0.074400
      7 C6          -0.3660    -0.1270     2.5370 c3         1 DEM      -0.074400
      8 C7           0.4630     0.1910     3.8010 c3         1 DEM      -0.074400
      9 C8          -0.2670    -0.1780     5.1110 c3         1 DEM      -0.075400
     10 C9           0.5620     0.1400     6.3750 c3         1 DEM      -0.074400
     11 C10         -0.1670    -0.2280     7.6820 c3         1 DEM      -0.088100
     12 O1          -0.7030     0.0090    -5.0130 os         1 DEM      -0.476000
     13 O5           0.8390    -0.5670    -6.6680 oh         1 DEM      -0.670000
     14 HCM1        -1.0100     0.2360    -7.0620 h2         1 DEM       0.047700
     15 HCM2         0.1660     1.3630    -6.3550 h2         1 DEM       0.047700
     16 HC11         0.3950     1.4190    -3.9180 h1         1 DEM       0.020700
     17 HC12         1.1110    -0.2140    -3.9750 h1         1 DEM       0.020700
     18 HC21        -0.8040    -1.0950    -2.6270 hc         1 DEM       0.052700
     19 HC22        -1.5140     0.5210    -2.5680 hc         1 DEM       0.052700
     20 HC31         0.5090     1.3630    -1.3360 hc         1 DEM       0.037700
     21 HC32         1.2170    -0.2520    -1.3950 hc         1 DEM       0.037700
     22 HC41        -0.7080    -1.1460    -0.0490 hc         1 DEM       0.039200
     23 HC42        -1.4170     0.4690     0.0100 hc         1 DEM       0.039200
     24 HC51         0.6070     1.3120     1.2390 hc         1 DEM       0.037200
     25 HC52         1.3150    -0.3030     1.1790 hc         1 DEM       0.037200
     26 HC61        -0.6090    -1.1970     2.5250 hc         1 DEM       0.037700
     27 HC62        -1.3180     0.4180     2.5840 hc         1 DEM       0.037700
     28 HC71         0.7060     1.2610     3.8120 hc         1 DEM       0.036700
     29 HC72         1.4140    -0.3540     3.7530 hc         1 DEM       0.036700
     30 HC81        -0.5100    -1.2480     5.0990 hc         1 DEM       0.037200
     31 HC82        -1.2190     0.3670     5.1580 hc         1 DEM       0.037200
     32 HC91         0.8050     1.2090     6.3910 hc         1 DEM       0.036700
     33 HC92         1.5130    -0.4050     6.3320 hc         1 DEM       0.036700
     34 H101         0.4590     0.0150     8.5490 hc         1 DEM       0.031367
     35 H102        -1.1080     0.3280     7.7720 hc         1 DEM       0.031367
     36 H103        -0.3930    -1.3000     7.7120 hc         1 DEM       0.031367
     37 HO5          1.4960    -0.5000    -5.9460 ho         1 DEM       0.441000
@<TRIPOS>BOND
     1     1    12 1   
     2     1    13 1   
     3     1    14 1   
     4     1    15 1   
     5     2     3 1   
     6     2    12 1   
     7     2    16 1   
     8     2    17 1   
     9     3     4 1   
    10     3    18 1   
    11     3    19 1   
    12     4     5 1   
    13     4    20 1   
    14     4    21 1   
    15     5     6 1   
    16     5    22 1   
    17     5    23 1   
    18     6     7 1   
    19     6    24 1   
    20     6    25 1   
    21     7     8 1   
    22     7    26 1   
    23     7    27 1   
    24     8     9 1   
    25     8    28 1   
    26     8    29 1   
    27     9    10 1   
    28     9    30 1   
    29     9    31 1   
    30    10    11 1   
    31    10    32 1   
    32    10    33 1   
    33    11    34 1   
    34    11    35 1   
    35    11    36 1   
    36    13    37 1   
@<TRIPOS>SUBSTRUCTURE
     1 DEM         1 TEMP              0 ****  ****    0 ROOT
