@<TRIPOS>MOLECULE
DEM
   37    36     1     0     0
SMALL
abcg2


@<TRIPOS>ATOM
      1 CM          -0.3230     0.3810    -6.1520 c3         1 DEM       0.378600
      2 C1           0.1800     0.1940    -3.8440 c3         1 DEM       0.157600
      3 C2          -0.4910    -0.2340    -2.5540 c3         1 DEM      -0.081400
      4 C3           0.3440     0.1100    -1.3260 c3         1 DEM      -0.074400
      5 C4          -0.4050    -0.1430    -0.0230 c3         1 DEM      -0.074400
      6 C5           0.4400     0.1010     1.2220 c3         1 DEM      -0.074400
      7 C6          -0.3410    -0.0940     2.5160 c3         1 DEM      -0.074400
      8 C7           0.4990     0.1150     3.7700 c3         1 DEM      -0.074400
      9 C8          -0.2930    -0.0720     5.0580 c3         1 DEM      -0.075400
     10 C9           0.5410     0.1230     6.3170 c3         1 DEM      -0.074400
     11 C10         -0.2620    -0.0760     7.5950 c3         1 DEM      -0.088100
     12 O1          -0.5960    -0.2530    -4.9400 os         1 DEM      -0.476000
     13 O5           0.9100     0.0370    -6.7040 oh         1 DEM      -0.670000
     14 HCM1        -1.0920     0.0380    -6.8450 h2         1 DEM       0.047700
     15 HCM2        -0.4070     1.4720    -6.0350 h2         1 DEM       0.047700
     16 HC11         0.2750     1.2890    -3.8640 h1         1 DEM       0.020700
     17 HC12         1.1970    -0.2170    -3.8910 h1         1 DEM       0.020700
     18 HC21        -0.6720    -1.3130    -2.5770 hc         1 DEM       0.052700
     19 HC22        -1.4710     0.2490    -2.4820 hc         1 DEM       0.052700
     20 HC31         0.6510     1.1610    -1.3650 hc         1 DEM       0.037700
     21 HC32         1.2670    -0.4790    -1.3390 hc         1 DEM       0.037700
     22 HC41        -0.7770    -1.1730    -0.0100 hc         1 DEM       0.039200
     23 HC42        -1.2910     0.5000     0.0080 hc         1 DEM       0.039200
     24 HC51         0.8480     1.1180     1.1940 hc         1 DEM       0.037200
     25 HC52         1.3030    -0.5730     1.2120 hc         1 DEM       0.037200
     26 HC61        -0.7690    -1.1020     2.5310 hc         1 DEM       0.037700
     27 HC62        -1.1920     0.5960     2.5310 hc         1 DEM       0.037700
     28 HC71         0.9350     1.1200     3.7540 hc         1 DEM       0.036700
     29 HC72         1.3450    -0.5820     3.7600 hc         1 DEM       0.036700
     30 HC81        -0.7350    -1.0750     5.0680 hc         1 DEM       0.037200
     31 HC82        -1.1360     0.6280     5.0700 hc         1 DEM       0.037200
     32 HC91         0.9790     1.1260     6.3100 hc         1 DEM       0.036700
     33 HC92         1.3850    -0.5750     6.3040 hc         1 DEM       0.036700
     34 H101         0.3560     0.0630     8.4840 hc         1 DEM       0.031367
     35 H102        -1.0910     0.6320     7.6560 hc         1 DEM       0.031367
     36 H103        -0.6850    -1.0810     7.6410 hc         1 DEM       0.031367
     37 HO5          1.5950     0.6100    -6.3440 ho         1 DEM       0.441000
@<TRIPOS>BOND
     1     1    12 1   
     2     1    13 1   
     3     1    14 1   
     4     1    15 1   
     5     2     3 1   
     6     2    12 1   
     7     2    16 1   
     8     2    17 1   
     9     3     4 1   
    10     3    18 1   
    11     3    19 1   
    12     4     5 1   
    13     4    20 1   
    14     4    21 1   
    15     5     6 1   
    16     5    22 1   
    17     5    23 1   
    18     6     7 1   
    19     6    24 1   
    20     6    25 1   
    21     7     8 1   
    22     7    26 1   
    23     7    27 1   
    24     8     9 1   
    25     8    28 1   
    26     8    29 1   
    27     9    10 1   
    28     9    30 1   
    29     9    31 1   
    30    10    11 1   
    31    10    32 1   
    32    10    33 1   
    33    11    34 1   
    34    11    35 1   
    35    11    36 1   
    36    13    37 1   
@<TRIPOS>SUBSTRUCTURE
     1 DEM         1 TEMP              0 ****  ****    0 ROOT
