@<TRIPOS>MOLECULE
DEN
   17    18     1     0     0
SMALL
No Charge or Current Charge


@<TRIPOS>ATOM
      1 C1           1.1960    -0.0050    -1.6610 c5         1 DEN      -0.016900
      2 C2          -0.1280    -0.0270    -2.4600 c2         1 DEN      -0.223200
      3 C3          -1.1650    -0.0340    -1.5910 ce         1 DEN      -0.167200
      4 C4          -1.4330    -0.0200     0.9880 ca         1 DEN      -0.087000
      5 C5          -0.7130    -0.0030     2.2000 ca         1 DEN      -0.114000
      6 C6           0.7020     0.0150     2.1890 ca         1 DEN      -0.110000
      7 C7           1.4080     0.0150     0.9670 ca         1 DEN      -0.095000
      8 C8           0.6770    -0.0020    -0.2300 ca         1 DEN      -0.092300
      9 C9          -0.7020    -0.0190    -0.2070 ca         1 DEN      -0.069800
     10 H11          1.8130    -0.8850    -1.8790 hc         1 DEN       0.071700
     11 H12          1.7910     0.8870    -1.8900 hc         1 DEN       0.071700
     12 H2          -0.2210    -0.0350    -3.5490 ha         1 DEN       0.190000
     13 H3          -2.2280    -0.0490    -1.8430 ha         1 DEN       0.192000
     14 H4          -2.5200    -0.0330     0.9810 ha         1 DEN       0.115000
     15 H5          -1.2480    -0.0030     3.1480 ha         1 DEN       0.111000
     16 H6           1.2500     0.0280     3.1290 ha         1 DEN       0.111000
     17 H7           2.4960     0.0290     0.9540 ha         1 DEN       0.112000
@<TRIPOS>BOND
     1     1     2 1   
     2     1     8 1   
     3     1    10 1   
     4     1    11 1   
     5     2     3 2   
     6     2    12 1   
     7     3     9 1   
     8     3    13 1   
     9     4     5 ar  
    10     4     9 ar  
    11     4    14 1   
    12     5     6 ar  
    13     5    15 1   
    14     6     7 ar  
    15     6    16 1   
    16     7     8 ar  
    17     7    17 1   
    18     8     9 ar  
@<TRIPOS>SUBSTRUCTURE
     1 DEN         1 TEMP              0 ****  ****    0 ROOT
