@<TRIPOS>MOLECULE
DEN
   17    18     1     0     0
SMALL
abcg2


@<TRIPOS>ATOM
      1 C1           1.1590    -0.0040    -1.6460 c5         1 DEN      -0.016900
      2 C2          -0.1260    -0.0260    -2.4200 c2         1 DEN      -0.223200
      3 C3          -1.1830    -0.0340    -1.5960 ce         1 DEN      -0.167200
      4 C4          -1.4150    -0.0190     0.9890 ca         1 DEN      -0.087000
      5 C5          -0.6940    -0.0030     2.1790 ca         1 DEN      -0.114000
      6 C6           0.6980     0.0150     2.1670 ca         1 DEN      -0.110000
      7 C7           1.3980     0.0160     0.9620 ca         1 DEN      -0.095000
      8 C8           0.6850    -0.0010    -0.2230 ca         1 DEN      -0.092300
      9 C9          -0.7170    -0.0180    -0.2110 ca         1 DEN      -0.069800
     10 H11          1.7860    -0.8730    -1.8720 hc         1 DEN       0.071700
     11 H12          1.7660     0.8740    -1.8870 hc         1 DEN       0.071700
     12 H2          -0.1650    -0.0350    -3.5000 ha         1 DEN       0.190000
     13 H3          -2.2230    -0.0490    -1.8900 ha         1 DEN       0.192000
     14 H4          -2.4980    -0.0330     1.0050 ha         1 DEN       0.115000
     15 H5          -1.2210    -0.0030     3.1240 ha         1 DEN       0.111000
     16 H6           1.2420     0.0260     3.1030 ha         1 DEN       0.111000
     17 H7           2.4810     0.0290     0.9610 ha         1 DEN       0.112000
@<TRIPOS>BOND
     1     1     2 1   
     2     1     8 1   
     3     1    10 1   
     4     1    11 1   
     5     2     3 2   
     6     2    12 1   
     7     3     9 1   
     8     3    13 1   
     9     4     5 ar  
    10     4     9 ar  
    11     4    14 1   
    12     5     6 ar  
    13     5    15 1   
    14     6     7 ar  
    15     6    16 1   
    16     7     8 ar  
    17     7    17 1   
    18     8     9 ar  
@<TRIPOS>SUBSTRUCTURE
     1 DEN         1 TEMP              0 ****  ****    0 ROOT
