@<TRIPOS>MOLECULE
DEO
   59    62     1     0     0
SMALL
bcc


@<TRIPOS>ATOM
      1 N1          -5.6490     0.1510     0.2460 n          1 DEO      -0.512400
      2 C1          -6.3150    -0.0270    -0.9550 c          1 DEO       0.719600
      3 C2          -7.1980    -1.2030    -0.7650 ca         1 DEO      -0.142600
      4 C3          -7.0090    -1.6730     0.5240 ca         1 DEO      -0.142600
      5 C4          -7.6930    -2.7680     1.0050 ca         1 DEO      -0.072500
      6 C5          -8.5890    -3.3900     0.1360 ca         1 DEO      -0.129000
      7 C6          -8.7790    -2.9180    -1.1600 ca         1 DEO      -0.129000
      8 C7          -8.0810    -1.8080    -1.6330 ca         1 DEO      -0.072500
      9 C8          -6.0010    -0.8070     1.1810 c          1 DEO       0.719600
     10 O1          -5.5570    -0.8900     2.2990 o          1 DEO      -0.558500
     11 O2          -6.1800     0.6580    -1.9380 o          1 DEO      -0.558500
     12 C9          -4.6490     1.1780     0.4760 c3         1 DEO       0.109000
     13 C10         -3.2510     0.6980     0.1080 c3         1 DEO      -0.067400
     14 C11         -2.1390     1.6700     0.5180 c3         1 DEO      -0.186700
     15 C12         -0.7940     0.9960     0.3080 c3         1 DEO      -0.134400
     16 C13          0.3820     1.8220     0.7570 c          1 DEO       0.587700
     17 O3           0.2370     2.8890     1.3160 o          1 DEO      -0.499100
     18 C14          1.7510     1.2750     0.5340 ca         1 DEO      -0.142600
     19 C15          2.8600     2.0160     0.9440 ca         1 DEO      -0.088000
     20 C16          4.1410     1.5270     0.7760 ca         1 DEO      -0.139500
     21 C17          4.3660     0.2770     0.1880 cp         1 DEO      -0.030000
     22 C18          3.2540    -0.4580    -0.2280 ca         1 DEO      -0.139500
     23 C19          1.9700     0.0310    -0.0570 ca         1 DEO      -0.088000
     24 C20          5.7310    -0.2490     0.0210 cp         1 DEO      -0.056000
     25 C21          5.9930    -1.6220     0.0960 ca         1 DEO      -0.083000
     26 C22          7.2720    -2.1200    -0.0480 ca         1 DEO      -0.195500
     27 C23          8.3460    -1.2560    -0.2770 ca         1 DEO       0.138100
     28 C24          8.1040     0.1140    -0.3600 ca         1 DEO      -0.195500
     29 C25          6.8120     0.5980    -0.2090 ca         1 DEO      -0.083000
     30 O4           9.5540    -1.8280    -0.4010 os         1 DEO      -0.330900
     31 C26         10.6980    -1.0060    -0.5940 c3         1 DEO       0.143400
     32 C27         11.9100    -1.9050    -0.6570 c3         1 DEO      -0.094100
     33 C28         -2.2670     2.9860    -0.2770 c          1 DEO       0.936600
     34 O5          -3.0540     3.8400     0.1810 o          1 DEO      -0.835800
     35 O6          -1.6170     3.0740    -1.3370 o          1 DEO      -0.835800
     36 H4          -7.5460    -3.1340     2.0120 ha         1 DEO       0.151000
     37 H5          -9.1450    -4.2540     0.4720 ha         1 DEO       0.128000
     38 H6          -9.4820    -3.4220    -1.8090 ha         1 DEO       0.128000
     39 H7          -8.2290    -1.4430    -2.6410 ha         1 DEO       0.151000
     40 H91         -4.6950     1.4560     1.5290 h1         1 DEO       0.085200
     41 H92         -4.9360     2.0570    -0.0970 h1         1 DEO       0.085200
     42 H101        -3.1990     0.5100    -0.9690 hc         1 DEO       0.024700
     43 H102        -3.0740    -0.2650     0.5970 hc         1 DEO       0.024700
     44 H11         -2.2680     1.8910     1.5830 hc         1 DEO       0.047700
     45 H121        -0.6620     0.7340    -0.7450 hc         1 DEO       0.044200
     46 H122        -0.7550     0.0470     0.8570 hc         1 DEO       0.044200
     47 H15          2.7190     2.9810     1.4130 ha         1 DEO       0.145500
     48 H16          4.9780     2.1160     1.1290 ha         1 DEO       0.123000
     49 H18          3.3880    -1.4180    -0.7100 ha         1 DEO       0.123000
     50 H19          1.1390    -0.5730    -0.3960 ha         1 DEO       0.145500
     51 H21          5.1880    -2.3180     0.2940 ha         1 DEO       0.134500
     52 H22          7.4510    -3.1850     0.0260 ha         1 DEO       0.134000
     53 H24          8.9030     0.8200    -0.5440 ha         1 DEO       0.134000
     54 H25          6.6550     1.6660    -0.2950 ha         1 DEO       0.134500
     55 H261        10.7940    -0.2930     0.2320 h1         1 DEO       0.032700
     56 H262        10.6000    -0.4300    -1.5200 h1         1 DEO       0.032700
     57 H271        12.8050    -1.2980    -0.7940 hc         1 DEO       0.044033
     58 H272        12.0290    -2.4750     0.2650 hc         1 DEO       0.044033
     59 H273        11.8460    -2.6010    -1.4930 hc         1 DEO       0.044033
@<TRIPOS>BOND
     1     1     2 1   
     2     1     9 1   
     3     1    12 1   
     4     2     3 1   
     5     2    11 2   
     6     3     4 ar  
     7     3     8 ar  
     8     4     5 ar  
     9     4     9 1   
    10     5     6 ar  
    11     5    36 1   
    12     6     7 ar  
    13     6    37 1   
    14     7     8 ar  
    15     7    38 1   
    16     8    39 1   
    17     9    10 2   
    18    12    13 1   
    19    12    40 1   
    20    12    41 1   
    21    13    14 1   
    22    13    42 1   
    23    13    43 1   
    24    14    15 1   
    25    14    33 1   
    26    14    44 1   
    27    15    16 1   
    28    15    45 1   
    29    15    46 1   
    30    16    17 2   
    31    16    18 1   
    32    18    19 ar  
    33    18    23 ar  
    34    19    20 ar  
    35    19    47 1   
    36    20    21 ar  
    37    20    48 1   
    38    21    22 ar  
    39    21    24 1   
    40    22    23 ar  
    41    22    49 1   
    42    23    50 1   
    43    24    25 ar  
    44    24    29 ar  
    45    25    26 ar  
    46    25    51 1   
    47    26    27 ar  
    48    26    52 1   
    49    27    28 ar  
    50    27    30 1   
    51    28    29 ar  
    52    28    53 1   
    53    29    54 1   
    54    30    31 1   
    55    31    32 1   
    56    31    55 1   
    57    31    56 1   
    58    32    57 1   
    59    32    58 1   
    60    32    59 1   
    61    33    34 1   
    62    33    35 1   
@<TRIPOS>SUBSTRUCTURE
     1 DEO         1 TEMP              0 ****  ****    0 ROOT
