@<TRIPOS>MOLECULE
DEO
   59    62     1     0     0
SMALL
No Charge or Current Charge


@<TRIPOS>ATOM
      1 N1          -5.4770    -0.0660    -0.4860 n          1 DEO      -0.378400
      2 C1          -5.8010    -1.1620    -1.2870 c          1 DEO       0.577100
      3 C2          -7.2270    -1.4630    -0.9680 ca         1 DEO      -0.142600
      4 C3          -7.6710    -0.5400    -0.0290 ca         1 DEO      -0.142600
      5 C4          -8.9830    -0.5690     0.4640 ca         1 DEO      -0.054500
      6 C5          -9.8480    -1.5720    -0.0240 ca         1 DEO      -0.111000
      7 C6          -9.3960    -2.5130    -0.9810 ca         1 DEO      -0.111000
      8 C7          -8.0710    -2.4660    -1.4660 ca         1 DEO      -0.054500
      9 C8          -6.5460     0.3870     0.2880 c          1 DEO       0.577100
     10 O1          -6.5520     1.3380     1.0560 o          1 DEO      -0.483000
     11 O2          -5.0720    -1.7410    -2.0780 o          1 DEO      -0.483000
     12 C9          -4.1620     0.6010    -0.5190 c3         1 DEO       0.109000
     13 C10         -3.1810     0.0200     0.5240 c3         1 DEO      -0.067400
     14 C11         -1.8170     0.7610     0.5850 c3         1 DEO      -0.186700
     15 C12         -0.8960     0.1770     1.7020 c3         1 DEO      -0.134400
     16 C13          0.3130     1.0940     2.0040 c          1 DEO       0.587700
     17 O3           0.1270     2.1150     2.6570 o          1 DEO      -0.499100
     18 C14          1.7170     0.7430     1.5290 ca         1 DEO      -0.142600
     19 C15          2.8120     1.5100     1.9910 ca         1 DEO      -0.070000
     20 C16          4.1240     1.2190     1.5810 ca         1 DEO      -0.121500
     21 C17          4.3980     0.1530     0.6930 cp         1 DEO      -0.030000
     22 C18          3.2990    -0.6100     0.2320 ca         1 DEO      -0.121500
     23 C19          1.9840    -0.3240     0.6380 ca         1 DEO      -0.070000
     24 C20          5.7970    -0.1570     0.2570 cp         1 DEO      -0.056000
     25 C21          6.2140    -1.4920     0.0240 ca         1 DEO      -0.065000
     26 C22          7.5280    -1.7800    -0.3840 ca         1 DEO      -0.177500
     27 C23          8.4580    -0.7480    -0.5710 ca         1 DEO       0.138100
     28 C24          8.0650     0.5880    -0.3450 ca         1 DEO      -0.177500
     29 C25          6.7500     0.8750     0.0640 ca         1 DEO      -0.065000
     30 O4           9.7320    -1.0920    -0.9720 os         1 DEO      -0.354100
     31 C26         10.7570    -0.1080    -1.1920 c3         1 DEO       0.166600
     32 C27         12.0310    -0.8510    -1.6260 c3         1 DEO      -0.094100
     33 C28         -1.1110     0.7940    -0.7940 c          1 DEO       0.726000
     34 O5          -0.8890     1.8850    -1.2940 o          1 DEO      -0.730500
     35 O6          -0.8310    -0.2650    -1.3330 o          1 DEO      -0.730500
     36 H4          -9.3240     0.1580     1.1990 ha         1 DEO       0.133000
     37 H5         -10.8730    -1.6220     0.3390 ha         1 DEO       0.110000
     38 H6         -10.0760    -3.2790    -1.3470 ha         1 DEO       0.110000
     39 H7          -7.7160    -3.1850    -2.2030 ha         1 DEO       0.133000
     40 H91         -4.3000     1.6740    -0.3290 h1         1 DEO       0.085200
     41 H92         -3.7340     0.5000    -1.5250 h1         1 DEO       0.085200
     42 H101        -3.0140    -1.0410     0.3050 hc         1 DEO       0.024700
     43 H102        -3.6560     0.0670     1.5120 hc         1 DEO       0.024700
     44 H11         -2.0300     1.8010     0.8660 hc         1 DEO       0.047700
     45 H121        -0.5800    -0.8290     1.4160 hc         1 DEO       0.044200
     46 H122        -1.4890     0.1070     2.6220 hc         1 DEO       0.044200
     47 H15          2.6530     2.3370     2.6790 ha         1 DEO       0.127500
     48 H16          4.9390     1.8240     1.9710 ha         1 DEO       0.105000
     49 H18          3.4620    -1.4270    -0.4650 ha         1 DEO       0.105000
     50 H19          1.1880    -0.9410     0.2350 ha         1 DEO       0.127500
     51 H21          5.5170    -2.3130     0.1740 ha         1 DEO       0.116500
     52 H22          7.8270    -2.8110    -0.5530 ha         1 DEO       0.116000
     53 H24          8.7580     1.4120    -0.4830 ha         1 DEO       0.116000
     54 H25          6.4650     1.9130     0.2200 ha         1 DEO       0.116500
     55 H261        10.9600     0.4560    -0.2720 h1         1 DEO       0.032700
     56 H262        10.4590     0.5960    -1.9800 h1         1 DEO       0.032700
     57 H271        12.8430    -0.1370    -1.8050 hc         1 DEO       0.044033
     58 H272        12.3540    -1.5520    -0.8480 hc         1 DEO       0.044033
     59 H273        11.8550    -1.4110    -2.5520 hc         1 DEO       0.044033
@<TRIPOS>BOND
     1     1     2 1   
     2     1     9 1   
     3     1    12 1   
     4     2     3 1   
     5     2    11 2   
     6     3     4 ar  
     7     3     8 ar  
     8     4     5 ar  
     9     4     9 1   
    10     5     6 ar  
    11     5    36 1   
    12     6     7 ar  
    13     6    37 1   
    14     7     8 ar  
    15     7    38 1   
    16     8    39 1   
    17     9    10 2   
    18    12    13 1   
    19    12    40 1   
    20    12    41 1   
    21    13    14 1   
    22    13    42 1   
    23    13    43 1   
    24    14    15 1   
    25    14    33 1   
    26    14    44 1   
    27    15    16 1   
    28    15    45 1   
    29    15    46 1   
    30    16    17 2   
    31    16    18 1   
    32    18    19 ar  
    33    18    23 ar  
    34    19    20 ar  
    35    19    47 1   
    36    20    21 ar  
    37    20    48 1   
    38    21    22 ar  
    39    21    24 1   
    40    22    23 ar  
    41    22    49 1   
    42    23    50 1   
    43    24    25 ar  
    44    24    29 ar  
    45    25    26 ar  
    46    25    51 1   
    47    26    27 ar  
    48    26    52 1   
    49    27    28 ar  
    50    27    30 1   
    51    28    29 ar  
    52    28    53 1   
    53    29    54 1   
    54    30    31 1   
    55    31    32 1   
    56    31    55 1   
    57    31    56 1   
    58    32    57 1   
    59    32    58 1   
    60    32    59 1   
    61    33    34 1   
    62    33    35 1   
@<TRIPOS>SUBSTRUCTURE
     1 DEO         1 TEMP              0 ****  ****    0 ROOT
