@<TRIPOS>MOLECULE
DEP
   19    18     1     0     0
SMALL
abcg2


@<TRIPOS>ATOM
      1 C1           0.2860    -0.7880    -0.7240 c3         1 DEP       0.214600
      2 C2          -0.1390     0.1300     0.3950 c3         1 DEP      -0.098100
      3 C3           4.3440     0.4650    -1.6230 c3         1 DEP       0.214600
      4 C4           5.6760     0.8710    -2.2020 c3         1 DEP      -0.098100
      5 O1           1.4120    -0.2000    -1.3990 os         1 DEP      -0.594900
      6 O2           3.5470    -0.1270    -2.6660 os         1 DEP      -0.594900
      7 O3           1.7260    -1.7120    -3.5140 o          1 DEP      -0.532000
      8 P            2.3520    -1.1200    -2.3120 p5         1 DEP       1.191200
      9 H11         -0.5250    -0.9310    -1.4410 h1         1 DEP       0.035700
     10 H12          0.5560    -1.7710    -0.3240 h1         1 DEP       0.035700
     11 H21         -1.0110    -0.2920     0.8940 hc         1 DEP       0.048367
     12 H22          0.6510     0.2460     1.1360 hc         1 DEP       0.048367
     13 H23         -0.4130     1.1150     0.0180 hc         1 DEP       0.048367
     14 H31          3.8140     1.3300    -1.2210 h1         1 DEP       0.035700
     15 H32          4.4860    -0.2500    -0.8060 h1         1 DEP       0.035700
     16 H41          6.2790     1.3330    -1.4210 hc         1 DEP       0.048367
     17 H42          6.2240     0.0110    -2.5860 hc         1 DEP       0.048367
     18 H43          5.5560     1.5970    -3.0060 hc         1 DEP       0.048367
     19 HP1          2.8890    -2.0580    -1.4110 hp         1 DEP      -0.137400
@<TRIPOS>BOND
     1     1     2 1   
     2     1     5 1   
     3     1     9 1   
     4     1    10 1   
     5     2    11 1   
     6     2    12 1   
     7     2    13 1   
     8     3     4 1   
     9     3     6 1   
    10     3    14 1   
    11     3    15 1   
    12     4    16 1   
    13     4    17 1   
    14     4    18 1   
    15     5     8 1   
    16     6     8 1   
    17     7     8 2   
    18     8    19 1   
@<TRIPOS>SUBSTRUCTURE
     1 DEP         1 TEMP              0 ****  ****    0 ROOT
