@<TRIPOS>MOLECULE
DEP
   19    18     1     0     0
SMALL
No Charge or Current Charge


@<TRIPOS>ATOM
      1 C1           0.2960    -0.8790    -0.9320 c3         1 DEP       0.214600
      2 C2           1.2000    -0.4160     0.2280 c3         1 DEP      -0.098100
      3 C3           3.7320     1.2850    -1.6740 c3         1 DEP       0.214600
      4 C4           4.8780     0.2820    -1.4170 c3         1 DEP      -0.098100
      5 O1           0.7430    -0.3330    -2.1860 os         1 DEP      -0.594900
      6 O2           2.8950     0.8310    -2.7530 os         1 DEP      -0.594900
      7 O3           2.2290    -1.3200    -4.1160 o          1 DEP      -0.532000
      8 P            2.2160    -0.6400    -2.7880 p5         1 DEP       1.191200
      9 H11         -0.7320    -0.5510    -0.7300 h1         1 DEP       0.035700
     10 H12          0.2900    -1.9770    -0.9700 h1         1 DEP       0.035700
     11 H21          0.7920    -0.7730     1.1800 hc         1 DEP       0.048367
     12 H22          2.2170    -0.8140     0.1350 hc         1 DEP       0.048367
     13 H23          1.2410     0.6790     0.2720 hc         1 DEP       0.048367
     14 H31          4.1710     2.2570    -1.9360 h1         1 DEP       0.035700
     15 H32          3.1510     1.4260    -0.7550 h1         1 DEP       0.035700
     16 H41          5.5910     0.7090    -0.7030 hc         1 DEP       0.048367
     17 H42          4.5070    -0.6570    -0.9900 hc         1 DEP       0.048367
     18 H43          5.4200     0.0630    -2.3450 hc         1 DEP       0.048367
     19 HP1          2.8720    -1.3230    -1.7330 hp         1 DEP      -0.137400
@<TRIPOS>BOND
     1     1     2 1   
     2     1     5 1   
     3     1     9 1   
     4     1    10 1   
     5     2    11 1   
     6     2    12 1   
     7     2    13 1   
     8     3     4 1   
     9     3     6 1   
    10     3    14 1   
    11     3    15 1   
    12     4    16 1   
    13     4    17 1   
    14     4    18 1   
    15     5     8 1   
    16     6     8 1   
    17     7     8 2   
    18     8    19 1   
@<TRIPOS>SUBSTRUCTURE
     1 DEP         1 TEMP              0 ****  ****    0 ROOT
