@<TRIPOS>MOLECULE
DEQ
   74    77     1     0     0
SMALL
No Charge or Current Charge


@<TRIPOS>ATOM
      1 C1           7.2280    -1.8390     0.1140 ca         1 DEQ      -0.150000
      2 C2           8.0150    -2.9960     0.2210 ca         1 DEQ      -0.022500
      3 C3           9.4100    -2.8920     0.2500 ca         1 DEQ      -0.098500
      4 C4          10.0220    -1.6310     0.1860 ca         1 DEQ      -0.054000
      5 C5           7.8240    -0.5570     0.0290 ca         1 DEQ       0.022500
      6 C6           9.2400    -0.4520     0.0840 ca         1 DEQ      -0.141500
      7 C7           9.8380     0.8290     0.0720 ca         1 DEQ       0.478000
      8 C8           9.0360     1.9670     0.1030 ca         1 DEQ      -0.299000
      9 C9           7.6380     1.8580     0.0690 ca         1 DEQ       0.131900
     10 N1           7.0350     0.6020    -0.1280 na         1 DEQ      -0.032700
     11 C10         -9.2410     0.4660    -0.0750 ca         1 DEQ      -0.141500
     12 C11         -7.8240     0.5710    -0.0210 ca         1 DEQ       0.022500
     13 N2          -7.0350    -0.5890     0.1330 na         1 DEQ      -0.032700
     14 C12         -7.6380    -1.8450    -0.0660 ca         1 DEQ       0.131900
     15 C13         -9.0370    -1.9540    -0.0990 ca         1 DEQ      -0.299000
     16 C14         -9.8390    -0.8160    -0.0650 ca         1 DEQ       0.478000
     17 C15        -10.0230     1.6440    -0.1730 ca         1 DEQ      -0.054000
     18 C16         -9.4110     2.9050    -0.2360 ca         1 DEQ      -0.098500
     19 C17         -8.0150     3.0100    -0.2090 ca         1 DEQ      -0.022500
     20 C18         -7.2290     1.8530    -0.1040 ca         1 DEQ      -0.150000
     21 C19         -5.7270    -0.5060     0.8370 c3         1 DEQ       0.041600
     22 C20         -4.5040    -0.4370    -0.1100 c3         1 DEQ      -0.099400
     23 C21         -3.1710    -0.2660     0.6500 c3         1 DEQ      -0.074400
     24 C22         -1.9460    -0.1990    -0.2880 c3         1 DEQ      -0.073400
     25 C23         -0.6130    -0.0270     0.4710 c3         1 DEQ      -0.073900
     26 C24          0.6120     0.0400    -0.4670 c3         1 DEQ      -0.073900
     27 C25          1.9460     0.2120     0.2930 c3         1 DEQ      -0.073400
     28 C26          3.1710     0.2790    -0.6460 c3         1 DEQ      -0.074400
     29 C27          4.5040     0.4510     0.1150 c3         1 DEQ      -0.099400
     30 C28          5.7270     0.5190    -0.8320 c3         1 DEQ       0.041600
     31 C30          6.7940     3.1210     0.2290 c3         1 DEQ      -0.086800
     32 C29         -6.7940    -3.1070    -0.2300 c3         1 DEQ      -0.086800
     33 N4          11.1910     1.0150     0.0980 nv         1 DEQ      -1.039500
     34 N3         -11.1910    -1.0020    -0.0890 nv         1 DEQ      -1.039500
     35 H11          6.1490    -1.9610     0.0940 ha         1 DEQ       0.140000
     36 H21          7.5410    -3.9750     0.2810 ha         1 DEQ       0.145500
     37 H31         10.0200    -3.7890     0.3340 ha         1 DEQ       0.151500
     38 H41         11.1070    -1.5880     0.2380 ha         1 DEQ       0.127000
     39 H81          9.4980     2.9460     0.1830 ha         1 DEQ       0.159000
     40 H131        -9.4990    -2.9330    -0.1810 ha         1 DEQ       0.159000
     41 H151       -11.1080     1.6020    -0.2240 ha         1 DEQ       0.127000
     42 H161       -10.0210     3.8030    -0.3180 ha         1 DEQ       0.151500
     43 H171        -7.5420     3.9880    -0.2670 ha         1 DEQ       0.145500
     44 H181        -6.1490     1.9750    -0.0860 ha         1 DEQ       0.140000
     45 H191        -5.6200    -1.3690     1.5060 h1         1 DEQ       0.081200
     46 H192        -5.7310     0.3770     1.4890 h1         1 DEQ       0.081200
     47 H201        -4.6270     0.3960    -0.8120 hc         1 DEQ       0.058700
     48 H202        -4.4540    -1.3490    -0.7150 hc         1 DEQ       0.058700
     49 H211        -3.0440    -1.1030     1.3490 hc         1 DEQ       0.046950
     50 H212        -3.2140     0.6510     1.2520 hc         1 DEQ       0.046950
     51 H221        -2.0730     0.6380    -0.9870 hc         1 DEQ       0.044700
     52 H222        -1.9030    -1.1150    -0.8900 hc         1 DEQ       0.044700
     53 H231        -0.4860    -0.8630     1.1700 hc         1 DEQ       0.043200
     54 H232        -0.6560     0.8900     1.0730 hc         1 DEQ       0.043200
     55 H241         0.4850     0.8770    -1.1660 hc         1 DEQ       0.043200
     56 H242         0.6560    -0.8760    -1.0690 hc         1 DEQ       0.043200
     57 H251         2.0730    -0.6240     0.9920 hc         1 DEQ       0.044700
     58 H252         1.9020     1.1290     0.8940 hc         1 DEQ       0.044700
     59 H261         3.0440     1.1160    -1.3450 hc         1 DEQ       0.046950
     60 H262         3.2140    -0.6380    -1.2470 hc         1 DEQ       0.046950
     61 H271         4.6260    -0.3820     0.8180 hc         1 DEQ       0.058700
     62 H272         4.4530     1.3630     0.7190 hc         1 DEQ       0.058700
     63 H281         5.6200     1.3810    -1.5020 h1         1 DEQ       0.081200
     64 H282         5.7300    -0.3650    -1.4830 h1         1 DEQ       0.081200
     65 H301         6.2790     3.3870    -0.7020 hc         1 DEQ       0.084033
     66 H302         6.0420     3.0000     1.0170 hc         1 DEQ       0.084033
     67 H303         7.4100     3.9820     0.5110 hc         1 DEQ       0.084033
     68 H291        -6.2780    -3.3740     0.6990 hc         1 DEQ       0.084033
     69 H292        -7.4100    -3.9680    -0.5120 hc         1 DEQ       0.084033
     70 H293        -6.0450    -2.9840    -1.0190 hc         1 DEQ       0.084033
     71 HN41        11.5460     1.9500    -0.0840 hn         1 DEQ       0.523250
     72 HN42        11.7940     0.2580    -0.2100 hn         1 DEQ       0.523250
     73 HN31       -11.5470    -1.9370     0.0910 hn         1 DEQ       0.523250
     74 HN32       -11.7940    -0.2460     0.2210 hn         1 DEQ       0.523250
@<TRIPOS>BOND
     1     1     2 ar  
     2     1     5 ar  
     3     1    35 1   
     4     2     3 ar  
     5     2    36 1   
     6     3     4 ar  
     7     3    37 1   
     8     4     6 ar  
     9     4    38 1   
    10     5     6 ar  
    11     5    10 1   
    12     6     7 ar  
    13     7     8 ar  
    14     7    33 1   
    15     8     9 ar  
    16     8    39 1   
    17     9    10 2   
    18     9    31 1   
    19    10    30 1   
    20    11    12 ar  
    21    11    16 ar  
    22    11    17 ar  
    23    12    13 1   
    24    12    20 ar  
    25    13    14 2   
    26    13    21 1   
    27    14    15 ar  
    28    14    32 1   
    29    15    16 ar  
    30    15    40 1   
    31    16    34 1   
    32    17    18 ar  
    33    17    41 1   
    34    18    19 ar  
    35    18    42 1   
    36    19    20 ar  
    37    19    43 1   
    38    20    44 1   
    39    21    22 1   
    40    21    45 1   
    41    21    46 1   
    42    22    23 1   
    43    22    47 1   
    44    22    48 1   
    45    23    24 1   
    46    23    49 1   
    47    23    50 1   
    48    24    25 1   
    49    24    51 1   
    50    24    52 1   
    51    25    26 1   
    52    25    53 1   
    53    25    54 1   
    54    26    27 1   
    55    26    55 1   
    56    26    56 1   
    57    27    28 1   
    58    27    57 1   
    59    27    58 1   
    60    28    29 1   
    61    28    59 1   
    62    28    60 1   
    63    29    30 1   
    64    29    61 1   
    65    29    62 1   
    66    30    63 1   
    67    30    64 1   
    68    31    65 1   
    69    31    66 1   
    70    31    67 1   
    71    32    68 1   
    72    32    69 1   
    73    32    70 1   
    74    33    71 1   
    75    33    72 1   
    76    34    73 1   
    77    34    74 1   
@<TRIPOS>SUBSTRUCTURE
     1 DEQ         1 TEMP              0 ****  ****    0 ROOT
