@<TRIPOS>MOLECULE
DES
   40    41     1     0     0
SMALL
No Charge or Current Charge


@<TRIPOS>ATOM
      1 CP9          2.5580     1.2410     0.6320 c3         1 DES      -0.085100
      2 CP8          2.0290    -0.0840     0.0500 c3         1 DES      -0.036200
      3 CP7          0.5940     0.0050    -0.4640 ce         1 DES      -0.048400
      4 CP6          0.4840     0.0060    -1.9490 ca         1 DES      -0.084800
      5 CP1          0.8280     1.1530    -2.6880 ca         1 DES      -0.063500
      6 CP2          0.7200     1.1500    -4.0900 ca         1 DES      -0.176250
      7 CP3          0.2690    -0.0010    -4.7560 ca         1 DES       0.136600
      8 OP3          0.1620    -0.0120    -6.1140 oh         1 DES      -0.534100
      9 CP4         -0.0740    -1.1470    -4.0240 ca         1 DES      -0.176250
     10 CP5          0.0330    -1.1450    -2.6220 ca         1 DES      -0.063500
     11 C7          -0.4790     0.0770     0.3880 cf         1 DES      -0.048400
     12 C6          -0.4100     0.0440     1.8630 ca         1 DES      -0.084800
     13 C5          -0.7770     1.1730     2.6230 ca         1 DES      -0.063500
     14 C4          -0.7120     1.1340     4.0270 ca         1 DES      -0.176250
     15 C3          -0.2840    -0.0310     4.6790 ca         1 DES       0.136600
     16 O3          -0.2240    -0.0590     6.0400 oh         1 DES      -0.534100
     17 C2           0.0790    -1.1620     3.9310 ca         1 DES      -0.176250
     18 C1           0.0150    -1.1240     2.5270 ca         1 DES      -0.063500
     19 C8          -1.9160     0.1940    -0.1200 c3         1 DES      -0.036200
     20 C9          -2.7260    -1.1050     0.0550 c3         1 DES      -0.085100
     21 HP91         1.9600     1.5590     1.4940 hc         1 DES       0.034367
     22 HP92         3.5960     1.1240     0.9650 hc         1 DES       0.034367
     23 HP93         2.5280     2.0370    -0.1210 hc         1 DES       0.034367
     24 HP81         2.7010    -0.3910    -0.7620 hc         1 DES       0.047700
     25 HP82         2.1210    -0.8670     0.8100 hc         1 DES       0.047700
     26 HP1          1.1730     2.0480    -2.1750 ha         1 DES       0.114750
     27 HP2          0.9870     2.0440    -4.6490 ha         1 DES       0.120000
     28 HOP3         0.4410     0.8650    -6.4540 ho         1 DES       0.463500
     29 HP4         -0.4230    -2.0370    -4.5400 ha         1 DES       0.120000
     30 HP5         -0.2310    -2.0360    -2.0570 ha         1 DES       0.114750
     31 H5          -1.1020     2.0830     2.1250 ha         1 DES       0.114750
     32 H4          -0.9920     2.0100     4.6070 ha         1 DES       0.120000
     33 HO3          0.0920    -0.9450     6.3180 ho         1 DES       0.463500
     34 H2           0.4080    -2.0710     4.4270 ha         1 DES       0.120000
     35 H1           0.2880    -2.0060     1.9510 ha         1 DES       0.114750
     36 H81         -2.4420     0.9990     0.4060 hc         1 DES       0.047700
     37 H82         -1.9460     0.4810    -1.1780 hc         1 DES       0.047700
     38 H91         -3.7410    -0.9800    -0.3420 hc         1 DES       0.034367
     39 H92         -2.2470    -1.9340    -0.4800 hc         1 DES       0.034367
     40 H93         -2.8040    -1.3770     1.1140 hc         1 DES       0.034367
@<TRIPOS>BOND
     1     1     2 1   
     2     1    21 1   
     3     1    22 1   
     4     1    23 1   
     5     2     3 1   
     6     2    24 1   
     7     2    25 1   
     8     3     4 1   
     9     3    11 2   
    10     4     5 ar  
    11     4    10 ar  
    12     5     6 ar  
    13     5    26 1   
    14     6     7 ar  
    15     6    27 1   
    16     7     8 1   
    17     7     9 ar  
    18     8    28 1   
    19     9    10 ar  
    20     9    29 1   
    21    10    30 1   
    22    11    12 1   
    23    11    19 1   
    24    12    13 ar  
    25    12    18 ar  
    26    13    14 ar  
    27    13    31 1   
    28    14    15 ar  
    29    14    32 1   
    30    15    16 1   
    31    15    17 ar  
    32    16    33 1   
    33    17    18 ar  
    34    17    34 1   
    35    18    35 1   
    36    19    20 1   
    37    19    36 1   
    38    19    37 1   
    39    20    38 1   
    40    20    39 1   
    41    20    40 1   
@<TRIPOS>SUBSTRUCTURE
     1 DES         1 TEMP              0 ****  ****    0 ROOT
