@<TRIPOS>MOLECULE
DES
   40    41     1     0     0
SMALL
bcc


@<TRIPOS>ATOM
      1 CP9          2.8900     0.9460    -0.1530 c3         1 DES      -0.085100
      2 CP8          1.9600    -0.2150     0.1980 c3         1 DES      -0.036200
      3 CP7          0.5640    -0.0180    -0.3370 ce         1 DES      -0.048400
      4 CP6          0.4880     0.0470    -1.8210 ca         1 DES      -0.084800
      5 CP1          0.2470     1.2430    -2.4920 ca         1 DES      -0.081500
      6 CP2          0.2070     1.3020    -3.8770 ca         1 DES      -0.194250
      7 CP3          0.4140     0.1490    -4.6290 ca         1 DES       0.136600
      8 OP3          0.3870     0.1440    -5.9790 oh         1 DES      -0.495100
      9 CP4          0.6630    -1.0550    -3.9760 ca         1 DES      -0.194250
     10 CP5          0.7020    -1.0950    -2.5910 ca         1 DES      -0.081500
     11 C7          -0.5280     0.1100     0.4330 cf         1 DES      -0.048400
     12 C6          -0.4650     0.0230     1.9160 ca         1 DES      -0.084800
     13 C5          -0.7660     1.1330     2.7060 ca         1 DES      -0.081500
     14 C4          -0.7420     1.0680     4.0900 ca         1 DES      -0.194250
     15 C3          -0.4210    -0.1300     4.7240 ca         1 DES       0.136600
     16 O3          -0.4110    -0.1500     6.0730 oh         1 DES      -0.495100
     17 C2          -0.1300    -1.2520     3.9530 ca         1 DES      -0.194250
     18 C1          -0.1560    -1.1670     2.5680 ca         1 DES      -0.081500
     19 C8          -1.9220     0.3020    -0.1110 c3         1 DES      -0.036200
     20 C9          -2.8130    -0.9120     0.1440 c3         1 DES      -0.085100
     21 HP91         2.5150     1.8840     0.2580 hc         1 DES       0.034367
     22 HP92         3.8860     0.7740     0.2560 hc         1 DES       0.034367
     23 HP93         2.9910     1.0720    -1.2310 hc         1 DES       0.034367
     24 HP81         2.3760    -1.1390    -0.2190 hc         1 DES       0.047700
     25 HP82         1.9490    -0.3470     1.2790 hc         1 DES       0.047700
     26 HP1          0.0850     2.1500    -1.9220 ha         1 DES       0.132750
     27 HP2          0.0140     2.2490    -4.3700 ha         1 DES       0.138000
     28 HOP3         0.1960     1.0280    -6.3110 ho         1 DES       0.424500
     29 HP4          0.8240    -1.9580    -4.5530 ha         1 DES       0.138000
     30 HP5          0.8970    -2.0420    -2.1020 ha         1 DES       0.132750
     31 H5          -1.0170     2.0750     2.2350 ha         1 DES       0.132750
     32 H4          -0.9700     1.9460     4.6810 ha         1 DES       0.138000
     33 HO3         -0.1660    -1.0260     6.3920 ho         1 DES       0.424500
     34 H2           0.1180    -2.1940     4.4290 ha         1 DES       0.138000
     35 H1           0.0690    -2.0520     1.9840 ha         1 DES       0.132750
     36 H81         -2.3740     1.1800     0.3630 hc         1 DES       0.047700
     37 H82         -1.8980     0.5110    -1.1790 hc         1 DES       0.047700
     38 H91         -3.8140    -0.7460    -0.2560 hc         1 DES       0.034367
     39 H92         -2.4020    -1.8020    -0.3360 hc         1 DES       0.034367
     40 H93         -2.9120    -1.1240     1.2090 hc         1 DES       0.034367
@<TRIPOS>BOND
     1     1     2 1   
     2     1    21 1   
     3     1    22 1   
     4     1    23 1   
     5     2     3 1   
     6     2    24 1   
     7     2    25 1   
     8     3     4 1   
     9     3    11 2   
    10     4     5 ar  
    11     4    10 ar  
    12     5     6 ar  
    13     5    26 1   
    14     6     7 ar  
    15     6    27 1   
    16     7     8 1   
    17     7     9 ar  
    18     8    28 1   
    19     9    10 ar  
    20     9    29 1   
    21    10    30 1   
    22    11    12 1   
    23    11    19 1   
    24    12    13 ar  
    25    12    18 ar  
    26    13    14 ar  
    27    13    31 1   
    28    14    15 ar  
    29    14    32 1   
    30    15    16 1   
    31    15    17 ar  
    32    16    33 1   
    33    17    18 ar  
    34    17    34 1   
    35    18    35 1   
    36    19    20 1   
    37    19    36 1   
    38    19    37 1   
    39    20    38 1   
    40    20    39 1   
    41    20    40 1   
@<TRIPOS>SUBSTRUCTURE
     1 DES         1 TEMP              0 ****  ****    0 ROOT
