@<TRIPOS>MOLECULE
DET
   44    43     1     0     0
SMALL
bcc


@<TRIPOS>ATOM
      1 N           -5.4480     0.0140     0.0290 n4         1 DET      -0.206600
      2 O           -5.4980     0.7520     1.1620 o          1 DET      -0.662000
      3 CM1         -5.6960     0.8800    -1.1520 c3         1 DET       0.101100
      4 CM2         -6.5040    -1.0300     0.0670 c3         1 DET       0.101100
      5 C1          -4.1230    -0.6790    -0.0950 c3         1 DET       0.124800
      6 C2          -2.9290     0.2530    -0.0770 c3         1 DET      -0.081400
      7 C3          -1.6300    -0.5470    -0.0560 c3         1 DET      -0.075400
      8 C4          -0.3890     0.3370    -0.0450 c3         1 DET      -0.073400
      9 C5           0.9060    -0.4660    -0.0270 c3         1 DET      -0.074400
     10 C6           2.1580     0.4030    -0.0210 c3         1 DET      -0.074400
     11 C7           3.4460    -0.4100    -0.0100 c3         1 DET      -0.074400
     12 C8           4.7050     0.4480    -0.0010 c3         1 DET      -0.074400
     13 C9           5.9890    -0.3730     0.0010 c3         1 DET      -0.075400
     14 C10          7.2540     0.4760     0.0140 c3         1 DET      -0.074400
     15 C11          8.5250    -0.3630     0.0110 c3         1 DET      -0.088100
     16 HM11        -5.6430     0.3090    -2.0790 hx         1 DET       0.062200
     17 HM12        -6.6890     1.3100    -1.0480 hx         1 DET       0.062200
     18 HM13        -4.9620     1.6790    -1.1690 hx         1 DET       0.062200
     19 HM21        -6.3380    -1.6530     0.9420 hx         1 DET       0.062200
     20 HM22        -7.4690    -0.5370     0.1470 hx         1 DET       0.062200
     21 HM23        -6.4800    -1.6460    -0.8310 hx         1 DET       0.062200
     22 H11         -4.1310    -1.2780    -1.0100 hx         1 DET       0.056200
     23 H12         -4.0710    -1.3660     0.7510 hx         1 DET       0.056200
     24 H21         -2.9870     0.8980     0.8010 hc         1 DET       0.064700
     25 H22         -2.9290     0.9020    -0.9570 hc         1 DET       0.064700
     26 H31         -1.5930    -1.2100    -0.9270 hc         1 DET       0.037200
     27 H32         -1.6170    -1.1990     0.8240 hc         1 DET       0.037200
     28 H41         -0.4220     0.9980     0.8270 hc         1 DET       0.041700
     29 H42         -0.4000     0.9910    -0.9240 hc         1 DET       0.041700
     30 H51          0.9310    -1.1310    -0.8980 hc         1 DET       0.036700
     31 H52          0.9150    -1.1200     0.8520 hc         1 DET       0.036700
     32 H61          2.1370     1.0640     0.8530 hc         1 DET       0.038700
     33 H62          2.1500     1.0590    -0.8980 hc         1 DET       0.038700
     34 H71          3.4650    -1.0710    -0.8840 hc         1 DET       0.036700
     35 H72          3.4520    -1.0690     0.8660 hc         1 DET       0.036700
     36 H81          4.6920     1.1040     0.8770 hc         1 DET       0.037200
     37 H82          4.6990     1.1110    -0.8740 hc         1 DET       0.037200
     38 H91          6.0020    -1.0260    -0.8800 hc         1 DET       0.037200
     39 H92          5.9920    -1.0400     0.8710 hc         1 DET       0.037200
     40 H101         7.2440     1.1260     0.8950 hc         1 DET       0.036700
     41 H102         7.2510     1.1430    -0.8540 hc         1 DET       0.036700
     42 H111         9.4210     0.2590     0.0190 hc         1 DET       0.031367
     43 H112         8.5670    -1.0150     0.8860 hc         1 DET       0.031367
     44 H113         8.5730    -0.9990    -0.8750 hc         1 DET       0.031367
@<TRIPOS>BOND
     1     1     2 1   
     2     1     3 1   
     3     1     4 1   
     4     1     5 1   
     5     3    16 1   
     6     3    17 1   
     7     3    18 1   
     8     4    19 1   
     9     4    20 1   
    10     4    21 1   
    11     5     6 1   
    12     5    22 1   
    13     5    23 1   
    14     6     7 1   
    15     6    24 1   
    16     6    25 1   
    17     7     8 1   
    18     7    26 1   
    19     7    27 1   
    20     8     9 1   
    21     8    28 1   
    22     8    29 1   
    23     9    10 1   
    24     9    30 1   
    25     9    31 1   
    26    10    11 1   
    27    10    32 1   
    28    10    33 1   
    29    11    12 1   
    30    11    34 1   
    31    11    35 1   
    32    12    13 1   
    33    12    36 1   
    34    12    37 1   
    35    13    14 1   
    36    13    38 1   
    37    13    39 1   
    38    14    15 1   
    39    14    40 1   
    40    14    41 1   
    41    15    42 1   
    42    15    43 1   
    43    15    44 1   
@<TRIPOS>SUBSTRUCTURE
     1 DET         1 TEMP              0 ****  ****    0 ROOT
