@<TRIPOS>MOLECULE
DET
   44    43     1     0     0
SMALL
No Charge or Current Charge


@<TRIPOS>ATOM
      1 N           -5.5900     0.0420     0.0220 n4         1 DET      -0.122000
      2 O           -5.7200     0.8200     1.1650 o          1 DET      -0.662000
      3 CM1         -5.7730     0.9120    -1.2260 c3         1 DET       0.072900
      4 CM2         -6.6700    -1.0420     0.0180 c3         1 DET       0.072900
      5 C1          -4.2130    -0.6450    -0.0140 c3         1 DET       0.096600
      6 C2          -2.9560     0.2520    -0.0040 c3         1 DET      -0.081400
      7 C3          -1.6480    -0.5670    -0.0140 c3         1 DET      -0.075400
      8 C4          -0.3810     0.3150    -0.0040 c3         1 DET      -0.073400
      9 C5           0.9270    -0.5060    -0.0140 c3         1 DET      -0.074400
     10 C6           2.1940     0.3760    -0.0050 c3         1 DET      -0.074400
     11 C7           3.5020    -0.4460    -0.0150 c3         1 DET      -0.074400
     12 C8           4.7700     0.4360    -0.0050 c3         1 DET      -0.074400
     13 C9           6.0780    -0.3850    -0.0160 c3         1 DET      -0.075400
     14 C10          7.3460     0.4960    -0.0060 c3         1 DET      -0.074400
     15 C11          8.6510    -0.3230    -0.0170 c3         1 DET      -0.088100
     16 HM11        -5.6570     0.2860    -2.1130 hx         1 DET       0.062200
     17 HM12        -6.7710     1.3520    -1.2070 hx         1 DET       0.062200
     18 HM13        -5.0190     1.7000    -1.2230 hx         1 DET       0.062200
     19 HM21        -6.5440    -1.6700     0.9020 hx         1 DET       0.062200
     20 HM22        -7.6510    -0.5650     0.0340 hx         1 DET       0.062200
     21 HM23        -6.5630    -1.6450    -0.8860 hx         1 DET       0.062200
     22 H11         -4.1890    -1.2660    -0.9120 hx         1 DET       0.056200
     23 H12         -4.1680    -1.3080     0.8530 hx         1 DET       0.056200
     24 H21         -2.9780     0.8910     0.8870 hc         1 DET       0.064700
     25 H22         -2.9730     0.9150    -0.8780 hc         1 DET       0.064700
     26 H31         -1.6340    -1.2100    -0.9030 hc         1 DET       0.037200
     27 H32         -1.6340    -1.2300     0.8610 hc         1 DET       0.037200
     28 H41         -0.3960     0.9580     0.8850 hc         1 DET       0.041700
     29 H42         -0.3970     0.9780    -0.8790 hc         1 DET       0.041700
     30 H51          0.9420    -1.1490    -0.9040 hc         1 DET       0.036700
     31 H52          0.9430    -1.1690     0.8600 hc         1 DET       0.036700
     32 H61          2.1800     1.0180     0.8850 hc         1 DET       0.038700
     33 H62          2.1790     1.0390    -0.8790 hc         1 DET       0.038700
     34 H71          3.5170    -1.0880    -0.9050 hc         1 DET       0.036700
     35 H72          3.5180    -1.1080     0.8590 hc         1 DET       0.036700
     36 H81          4.7550     1.0790     0.8840 hc         1 DET       0.037200
     37 H82          4.7540     1.0990    -0.8800 hc         1 DET       0.037200
     38 H91          6.0930    -1.0270    -0.9050 hc         1 DET       0.037200
     39 H92          6.0940    -1.0480     0.8580 hc         1 DET       0.037200
     40 H101         7.3360     1.1390     0.8830 hc         1 DET       0.036700
     41 H102         7.3350     1.1600    -0.8800 hc         1 DET       0.036700
     42 H111         9.5210     0.3440    -0.0090 hc         1 DET       0.031367
     43 H112         8.7090    -0.9720     0.8660 hc         1 DET       0.031367
     44 H113         8.7080    -0.9510    -0.9140 hc         1 DET       0.031367
@<TRIPOS>BOND
     1     1     2 1   
     2     1     3 1   
     3     1     4 1   
     4     1     5 1   
     5     3    16 1   
     6     3    17 1   
     7     3    18 1   
     8     4    19 1   
     9     4    20 1   
    10     4    21 1   
    11     5     6 1   
    12     5    22 1   
    13     5    23 1   
    14     6     7 1   
    15     6    24 1   
    16     6    25 1   
    17     7     8 1   
    18     7    26 1   
    19     7    27 1   
    20     8     9 1   
    21     8    28 1   
    22     8    29 1   
    23     9    10 1   
    24     9    30 1   
    25     9    31 1   
    26    10    11 1   
    27    10    32 1   
    28    10    33 1   
    29    11    12 1   
    30    11    34 1   
    31    11    35 1   
    32    12    13 1   
    33    12    36 1   
    34    12    37 1   
    35    13    14 1   
    36    13    38 1   
    37    13    39 1   
    38    14    15 1   
    39    14    40 1   
    40    14    41 1   
    41    15    42 1   
    42    15    43 1   
    43    15    44 1   
@<TRIPOS>SUBSTRUCTURE
     1 DET         1 TEMP              0 ****  ****    0 ROOT
