@<TRIPOS>MOLECULE
DEW
   25    26     1     0     0
SMALL
No Charge or Current Charge


@<TRIPOS>ATOM
      1 C4          -1.6590     0.5250    -0.0150 cc         1 DEW      -0.193300
      2 C5           0.3090    -0.8650     0.8200 c6         1 DEW       0.173300
      3 C6           0.4190     1.6380     0.7860 c6         1 DEW       0.099000
      4 C7          -0.8380     1.7860    -0.1020 c6         1 DEW      -0.026100
      5 C9           3.1100    -1.0990    -0.2380 c3         1 DEW       0.073800
      6 N1           1.1220     0.3510     0.5170 n          1 DEW      -0.415800
      7 N2           4.5800    -1.1190    -0.5720 n8         1 DEW      -0.976200
      8 C3          -1.1410    -0.6760     0.4010 cd         1 DEW      -0.145300
      9 S1          -3.3660     0.3880    -0.4260 ss         1 DEW       0.205000
     10 C1          -3.3500    -1.3250    -0.0160 cc         1 DEW      -0.238000
     11 C2          -2.1030    -1.7230     0.4000 cd         1 DEW      -0.121000
     12 O1           2.9780     1.3370    -0.4090 o          1 DEW      -0.586100
     13 H1           0.7070    -1.7470     0.3020 h1         1 DEW       0.054200
     14 H2           0.3610    -1.0680     1.9000 h1         1 DEW       0.054200
     15 H3           1.0840     2.4990     0.6290 h1         1 DEW       0.065200
     16 H4           0.1150     1.6570     1.8420 h1         1 DEW       0.065200
     17 H5          -0.5320     1.9700    -1.1410 hc         1 DEW       0.062700
     18 H6          -1.4170     2.6630     0.2160 hc         1 DEW       0.062700
     19 H7           2.9700    -1.6580     0.6970 h1         1 DEW       0.043700
     20 H8           2.5670    -1.6320    -1.0300 h1         1 DEW       0.043700
     21 H9           4.8730    -2.0810    -0.7870 hn         1 DEW       0.402000
     22 H10          4.7330    -0.6120    -1.4550 hn         1 DEW       0.402000
     23 H12         -4.2580    -1.9060    -0.1130 h4         1 DEW       0.152000
     24 H13         -1.8760    -2.7420     0.7000 ha         1 DEW       0.133000
     25 C8           2.4120     0.3030    -0.0650 c          1 DEW       0.607100
@<TRIPOS>BOND
     1     1     4 1   
     2     1     8 2   
     3     1     9 1   
     4     2     6 1   
     5     2     8 1   
     6     2    13 1   
     7     2    14 1   
     8     3     4 1   
     9     3     6 1   
    10     3    15 1   
    11     3    16 1   
    12     4    17 1   
    13     4    18 1   
    14     5     7 1   
    15     5    19 1   
    16     5    20 1   
    17     5    25 1   
    18     6    25 1   
    19     7    21 1   
    20     7    22 1   
    21     8    11 1   
    22     9    10 1   
    23    10    11 2   
    24    10    23 1   
    25    11    24 1   
    26    12    25 2   
@<TRIPOS>SUBSTRUCTURE
     1 DEW         1 TEMP              0 ****  ****    0 ROOT
