@<TRIPOS>MOLECULE
DEW
   25    26     1     0     0
SMALL
abcg2


@<TRIPOS>ATOM
      1 C4          -1.5160     0.4800    -0.0750 cc         1 DEW      -0.193300
      2 C5           0.3440    -0.8260     0.9760 c6         1 DEW       0.173300
      3 C6           0.4650     1.6010     0.8110 c6         1 DEW       0.099000
      4 C7          -0.7230     1.7440    -0.1360 c6         1 DEW      -0.026100
      5 C9           2.9430    -1.1020    -0.2440 c3         1 DEW       0.073800
      6 N1           1.1350     0.3300     0.6020 n          1 DEW      -0.415800
      7 N2           4.3080    -0.9910    -0.7090 n8         1 DEW      -0.976200
      8 C3          -1.0520    -0.6940     0.4370 cd         1 DEW      -0.145300
      9 S1          -3.1400     0.3180    -0.6210 ss         1 DEW       0.205000
     10 C1          -3.1980    -1.3340    -0.1510 cc         1 DEW      -0.238000
     11 C2          -2.0220    -1.7370     0.3980 cd         1 DEW      -0.121000
     12 O1           2.9390     1.2840    -0.3590 o          1 DEW      -0.586100
     13 H1           0.7890    -1.7420     0.5950 h1         1 DEW       0.054200
     14 H2           0.3190    -0.9240     2.0670 h1         1 DEW       0.054200
     15 H3           1.1720     2.4130     0.6740 h1         1 DEW       0.065200
     16 H4           0.1140     1.6390     1.8460 h1         1 DEW       0.065200
     17 H5          -0.3740     1.9370    -1.1540 hc         1 DEW       0.062700
     18 H6          -1.3230     2.6070     0.1620 hc         1 DEW       0.062700
     19 H7           2.9410    -1.6720     0.6890 h1         1 DEW       0.043700
     20 H8           2.2750    -1.6420    -0.9310 h1         1 DEW       0.043700
     21 H9           4.6660    -1.9220    -0.8740 hn         1 DEW       0.402000
     22 H10          4.3280    -0.5210    -1.6050 hn         1 DEW       0.402000
     23 H12         -4.0920    -1.9160    -0.3110 h4         1 DEW       0.152000
     24 H13         -1.8450    -2.7420     0.7570 ha         1 DEW       0.133000
     25 C8           2.3450     0.2770    -0.0030 c          1 DEW       0.607100
@<TRIPOS>BOND
     1     1     4 1   
     2     1     8 2   
     3     1     9 1   
     4     2     6 1   
     5     2     8 1   
     6     2    13 1   
     7     2    14 1   
     8     3     4 1   
     9     3     6 1   
    10     3    15 1   
    11     3    16 1   
    12     4    17 1   
    13     4    18 1   
    14     5     7 1   
    15     5    19 1   
    16     5    20 1   
    17     5    25 1   
    18     6    25 1   
    19     7    21 1   
    20     7    22 1   
    21     8    11 1   
    22     9    10 1   
    23    10    11 2   
    24    10    23 1   
    25    11    24 1   
    26    12    25 2   
@<TRIPOS>SUBSTRUCTURE
     1 DEW         1 TEMP              0 ****  ****    0 ROOT
