@<TRIPOS>MOLECULE
DEX
   57    60     1     0     0
SMALL
No Charge or Current Charge


@<TRIPOS>ATOM
      1 C1          -1.7510     0.2890    -3.4250 c2         1 DEX      -0.151200
      2 C2          -1.5900     0.9650    -4.5850 ce         1 DEX      -0.285200
      3 C3          -0.3040     1.0180    -5.3190 c          1 DEX       0.569500
      4 C4           0.8140     0.2850    -4.6850 ce         1 DEX      -0.290200
      5 C5           0.6930    -0.4050    -3.5270 c2         1 DEX      -0.044400
      6 C6           1.8920    -1.1040    -2.8940 c6         1 DEX      -0.047200
      7 C7           2.1320    -0.5970    -1.4570 c6         1 DEX      -0.069400
      8 C8           0.8510    -0.7020    -0.5760 c6         1 DEX      -0.062700
      9 C9          -0.3830     0.0110    -1.2600 c6         1 DEX       0.235000
     10 C10         -0.6330    -0.5150    -2.7440 c6         1 DEX      -0.005600
     11 C11         -1.6620     0.0440    -0.3130 c6         1 DEX       0.157300
     12 C12         -1.3300     0.5520     1.1300 c6         1 DEX      -0.098400
     13 C13         -0.1160    -0.1800     1.8110 c5         1 DEX      -0.019000
     14 C14          1.1070    -0.0960     0.8410 c5         1 DEX      -0.069700
     15 C15          2.2620    -0.6850     1.6970 c5         1 DEX      -0.062400
     16 C16          1.9540    -0.1770     3.1530 c5         1 DEX      -0.086700
     17 C17          0.5450     0.5650     3.0550 c5         1 DEX       0.087000
     18 C18         -0.5560    -1.6490     2.1730 c3         1 DEX      -0.095100
     19 C19         -1.0800    -2.0130    -2.8500 c3         1 DEX      -0.068100
     20 C20         -0.3120     0.3420     4.3780 c          1 DEX       0.546100
     21 C21         -1.5940     1.2170     4.5320 c3         1 DEX       0.061600
     22 C22          3.1050     0.6370     3.7980 c3         1 DEX      -0.097100
     23 F1          -0.0180     1.3730    -1.4170 f          1 DEX      -0.264000
     24 O1          -0.1750     1.6300    -6.3700 o          1 DEX      -0.528100
     25 O2          -2.3730    -1.2030    -0.2390 oh         1 DEX      -0.660000
     26 O3           0.7240     1.9840     2.8300 oh         1 DEX      -0.657000
     27 O4           0.0120    -0.4180     5.2890 o          1 DEX      -0.481100
     28 O5          -2.7660     0.4660     4.9370 oh         1 DEX      -0.634000
     29 H1          -2.7290     0.2730    -2.9380 ha         1 DEX       0.184000
     30 H2          -2.4150     1.5090    -5.0410 ha         1 DEX       0.199000
     31 H4           1.7640     0.3460    -5.2110 ha         1 DEX       0.198000
     32 H61          2.7970    -0.9350    -3.4930 hc         1 DEX       0.055700
     33 H62          1.7370    -2.1910    -2.8880 hc         1 DEX       0.055700
     34 H71          2.4780     0.4450    -1.4980 hc         1 DEX       0.052200
     35 H72          2.9510    -1.1750    -1.0070 hc         1 DEX       0.052200
     36 H8           0.6190    -1.7670    -0.4570 hc         1 DEX       0.069700
     37 H11         -2.3470     0.7900    -0.7410 h1         1 DEX       0.046700
     38 H211        -2.2270     0.4780     1.7580 hc         1 DEX       0.060700
     39 H221        -1.1150     1.6270     1.0580 hc         1 DEX       0.060700
     40 H14          1.3510     0.9520     0.6280 hc         1 DEX       0.076700
     41 H511         3.2400    -0.3460     1.3380 hc         1 DEX       0.047700
     42 H521         2.2790    -1.7810     1.6540 hc         1 DEX       0.047700
     43 H16          1.8760    -1.0660     3.7900 hc         1 DEX       0.078700
     44 H811        -0.6910    -2.2830     1.2920 hc         1 DEX       0.047033
     45 H821         0.1670    -2.1750     2.8040 hc         1 DEX       0.047033
     46 H831        -1.5050    -1.6530     2.7220 hc         1 DEX       0.047033
     47 H911        -1.0050    -2.3660    -3.8860 hc         1 DEX       0.047033
     48 H921        -0.4710    -2.6830    -2.2350 hc         1 DEX       0.047033
     49 H931        -2.1250    -2.1580    -2.5570 hc         1 DEX       0.047033
     50 H112        -1.7850     1.7350     3.5840 h1         1 DEX       0.042700
     51 H122        -1.3620     1.9930     5.2730 h1         1 DEX       0.042700
     52 H212         4.0030     0.0160     3.9080 hc         1 DEX       0.040033
     53 H222         3.3840     1.5040     3.1870 hc         1 DEX       0.040033
     54 H232         2.8290     0.9940     4.7970 hc         1 DEX       0.040033
     55 HO2         -3.1830    -1.0400     0.2900 ho         1 DEX       0.449000
     56 H3           1.5240     2.2600     3.3270 ho         1 DEX       0.453000
     57 H5          -3.5020     1.1070     5.0630 ho         1 DEX       0.445000
@<TRIPOS>BOND
     1     1     2 2   
     2     1    10 1   
     3     1    29 1   
     4     2     3 1   
     5     2    30 1   
     6     3     4 1   
     7     3    24 2   
     8     4     5 2   
     9     4    31 1   
    10     5     6 1   
    11     5    10 1   
    12     6     7 1   
    13     6    32 1   
    14     6    33 1   
    15     7     8 1   
    16     7    34 1   
    17     7    35 1   
    18     8     9 1   
    19     8    14 1   
    20     8    36 1   
    21     9    10 1   
    22     9    11 1   
    23     9    23 1   
    24    10    19 1   
    25    11    12 1   
    26    11    25 1   
    27    11    37 1   
    28    12    13 1   
    29    12    38 1   
    30    12    39 1   
    31    13    14 1   
    32    13    17 1   
    33    13    18 1   
    34    14    15 1   
    35    14    40 1   
    36    15    16 1   
    37    15    41 1   
    38    15    42 1   
    39    16    17 1   
    40    16    22 1   
    41    16    43 1   
    42    17    20 1   
    43    17    26 1   
    44    18    44 1   
    45    18    45 1   
    46    18    46 1   
    47    19    47 1   
    48    19    48 1   
    49    19    49 1   
    50    20    21 1   
    51    20    27 2   
    52    21    28 1   
    53    21    50 1   
    54    21    51 1   
    55    22    52 1   
    56    22    53 1   
    57    22    54 1   
    58    25    55 1   
    59    26    56 1   
    60    28    57 1   
@<TRIPOS>SUBSTRUCTURE
     1 DEX         1 TEMP              0 ****  ****    0 ROOT
