@<TRIPOS>MOLECULE
DEX
   57    60     1     0     0
SMALL
abcg2


@<TRIPOS>ATOM
      1 C1          -1.7280     0.1590    -3.3400 c2         1 DEX      -0.151200
      2 C2          -1.6330     0.9030    -4.4410 ce         1 DEX      -0.285200
      3 C3          -0.3520     1.0870    -5.1300 c          1 DEX       0.569500
      4 C4           0.7950     0.3850    -4.5620 ce         1 DEX      -0.290200
      5 C5           0.7120    -0.3670    -3.4580 c2         1 DEX      -0.044400
      6 C6           1.9060    -1.0520    -2.8770 c6         1 DEX      -0.047200
      7 C7           2.1150    -0.6380    -1.4220 c6         1 DEX      -0.069400
      8 C8           0.8440    -0.7420    -0.5790 c6         1 DEX      -0.062700
      9 C9          -0.3350    -0.0340    -1.2660 c6         1 DEX       0.235000
     10 C10         -0.5850    -0.5760    -2.7140 c6         1 DEX      -0.005600
     11 C11         -1.5950     0.0960    -0.3860 c6         1 DEX       0.157300
     12 C12         -1.2820     0.5900     1.0330 c6         1 DEX      -0.098400
     13 C13         -0.1580    -0.1890     1.7100 c5         1 DEX      -0.019000
     14 C14          1.0720    -0.1250     0.7950 c5         1 DEX      -0.069700
     15 C15          2.2070    -0.6640     1.6590 c5         1 DEX      -0.062400
     16 C16          1.8360    -0.2350     3.1010 c5         1 DEX      -0.086700
     17 C17          0.4490     0.4620     2.9970 c5         1 DEX       0.087000
     18 C18         -0.5810    -1.6310     2.0260 c3         1 DEX      -0.095100
     19 C19         -0.9340    -2.0820    -2.7970 c3         1 DEX      -0.068100
     20 C20         -0.4200     0.2430     4.2360 c          1 DEX       0.546100
     21 C21         -1.4730     1.2940     4.5160 c3         1 DEX       0.061600
     22 C22          2.9040     0.6120     3.7800 c3         1 DEX      -0.097100
     23 F1           0.0590     1.3020    -1.4680 f          1 DEX      -0.264000
     24 O1          -0.2550     1.7850    -6.1300 o          1 DEX      -0.528100
     25 O2          -2.2720    -1.1360    -0.3960 oh         1 DEX      -0.660000
     26 O3           0.5530     1.8480     2.7580 oh         1 DEX      -0.657000
     27 O4          -0.2950    -0.7140     4.9620 o          1 DEX      -0.481100
     28 O5          -2.3150     0.8320     5.5310 oh         1 DEX      -0.634000
     29 H1          -2.7000     0.0200    -2.8780 ha         1 DEX       0.184000
     30 H2          -2.5050     1.3860    -4.8630 ha         1 DEX       0.199000
     31 H4           1.7450     0.5000    -5.0730 ha         1 DEX       0.198000
     32 H61          2.7950    -0.8210    -3.4650 hc         1 DEX       0.055700
     33 H62          1.7660    -2.1360    -2.9320 hc         1 DEX       0.055700
     34 H71          2.4880     0.3890    -1.3900 hc         1 DEX       0.052200
     35 H72          2.8930    -1.2620    -0.9790 hc         1 DEX       0.052200
     36 H8           0.5850    -1.7990    -0.4640 hc         1 DEX       0.069700
     37 H11         -2.2210     0.8700    -0.8520 h1         1 DEX       0.046700
     38 H211        -2.2150     0.5500     1.6080 hc         1 DEX       0.060700
     39 H221        -1.0130     1.6450     0.9700 hc         1 DEX       0.060700
     40 H14          1.2870     0.9350     0.6240 hc         1 DEX       0.076700
     41 H511         3.1750    -0.2580     1.3580 hc         1 DEX       0.047700
     42 H521         2.2850    -1.7520     1.5860 hc         1 DEX       0.047700
     43 H16          1.7090    -1.1290     3.7110 hc         1 DEX       0.078700
     44 H811        -0.6690    -2.2310     1.1260 hc         1 DEX       0.047033
     45 H821         0.1230    -2.1410     2.6820 hc         1 DEX       0.047033
     46 H831        -1.5550    -1.6510     2.5180 hc         1 DEX       0.047033
     47 H911        -0.8330    -2.4080    -3.8320 hc         1 DEX       0.047033
     48 H921        -0.2770    -2.6990    -2.1890 hc         1 DEX       0.047033
     49 H931        -1.9540    -2.2700    -2.4810 hc         1 DEX       0.047033
     50 H112        -2.0110     1.5140     3.5830 h1         1 DEX       0.042700
     51 H122        -0.9590     2.2250     4.7890 h1         1 DEX       0.042700
     52 H212         3.8160     0.0280     3.9030 hc         1 DEX       0.040033
     53 H222         3.1770     1.4940     3.1970 hc         1 DEX       0.040033
     54 H232         2.5980     0.9380     4.7780 hc         1 DEX       0.040033
     55 HO2         -3.0140    -1.0700     0.2140 ho         1 DEX       0.449000
     56 H3           1.1820     2.2360     3.3760 ho         1 DEX       0.453000
     57 H5          -2.9490     1.5290     5.7220 ho         1 DEX       0.445000
@<TRIPOS>BOND
     1     1     2 2   
     2     1    10 1   
     3     1    29 1   
     4     2     3 1   
     5     2    30 1   
     6     3     4 1   
     7     3    24 2   
     8     4     5 2   
     9     4    31 1   
    10     5     6 1   
    11     5    10 1   
    12     6     7 1   
    13     6    32 1   
    14     6    33 1   
    15     7     8 1   
    16     7    34 1   
    17     7    35 1   
    18     8     9 1   
    19     8    14 1   
    20     8    36 1   
    21     9    10 1   
    22     9    11 1   
    23     9    23 1   
    24    10    19 1   
    25    11    12 1   
    26    11    25 1   
    27    11    37 1   
    28    12    13 1   
    29    12    38 1   
    30    12    39 1   
    31    13    14 1   
    32    13    17 1   
    33    13    18 1   
    34    14    15 1   
    35    14    40 1   
    36    15    16 1   
    37    15    41 1   
    38    15    42 1   
    39    16    17 1   
    40    16    22 1   
    41    16    43 1   
    42    17    20 1   
    43    17    26 1   
    44    18    44 1   
    45    18    45 1   
    46    18    46 1   
    47    19    47 1   
    48    19    48 1   
    49    19    49 1   
    50    20    21 1   
    51    20    27 2   
    52    21    28 1   
    53    21    50 1   
    54    21    51 1   
    55    22    52 1   
    56    22    53 1   
    57    22    54 1   
    58    25    55 1   
    59    26    56 1   
    60    28    57 1   
@<TRIPOS>SUBSTRUCTURE
     1 DEX         1 TEMP              0 ****  ****    0 ROOT
