@<TRIPOS>MOLECULE
DEY
   61    64     1     0     0
SMALL
abcg2


@<TRIPOS>ATOM
      1 O32          2.3890    -2.8730    -0.7080 o          1 DEY      -0.537000
      2 S36          1.9070    -1.5710    -1.1290 sy         1 DEY       1.200600
      3 O31          1.8650    -1.2920    -2.5540 o          1 DEY      -0.537000
      4 C9           2.7330    -0.2680    -0.3190 ca         1 DEY      -0.297500
      5 C5           4.1050    -0.3560    -0.1110 ca         1 DEY      -0.103000
      6 C8           4.7660     0.7370     0.4290 ca         1 DEY       0.127100
      7 O34          6.0850     0.8010     0.6700 os         1 DEY      -0.319100
      8 C22          6.9150    -0.3090     0.3840 c3         1 DEY       0.090300
      9 C17          6.8430    -1.3700     1.4750 c3         1 DEY      -0.122100
     10 C16          8.3350     0.2480     0.3100 c          1 DEY       0.608100
     11 O30          8.6950     1.1740     1.0150 o          1 DEY      -0.570100
     12 N28          9.1320    -0.4100    -0.5390 nt         1 DEY      -0.611000
     13 C3           4.0330     1.8910     0.7430 ca         1 DEY      -0.085000
     14 N26          0.4180    -1.3430    -0.4500 nu         1 DEY      -0.904300
     15 C14         -0.1160    -0.0760    -0.3230 ce         1 DEY       0.760500
     16 N24          0.6080     0.9680    -0.1420 nf         1 DEY      -0.636100
     17 C7           1.9740     0.8610    -0.0050 ca         1 DEY       0.212400
     18 C2           2.6770     1.9510     0.5290 ca         1 DEY      -0.070000
     19 C12         -1.5880     0.0210    -0.3680 cc         1 DEY      -0.337800
     20 C13         -2.2510     1.2320    -0.3100 cd         1 DEY       0.168500
     21 O33         -1.6160     2.3710    -0.1620 oh         1 DEY      -0.453100
     22 C15         -2.3850    -1.1860    -0.4520 c          1 DEY       0.562200
     23 O29         -1.9300    -2.3350    -0.4580 o          1 DEY      -0.565000
     24 N27         -3.7490    -1.0190    -0.5140 n          1 DEY      -0.102800
     25 C21         -4.6360    -2.1840    -0.5490 c3         1 DEY       0.111000
     26 C20         -5.0140    -2.6420     0.8530 c3         1 DEY      -0.095400
     27 C23         -6.0490    -3.7680     0.8570 c3         1 DEY      -0.056700
     28 C19         -5.5060    -5.0440     0.2190 c3         1 DEY      -0.090100
     29 C18         -6.5070    -4.0450     2.2850 c3         1 DEY      -0.090100
     30 N25         -4.3640     0.1370    -0.4920 nc         1 DEY      -0.382300
     31 C11         -3.6860     1.2330    -0.4100 cd         1 DEY       0.346200
     32 C10         -4.4410     2.4870    -0.3770 cd         1 DEY      -0.291900
     33 C4          -4.2690     3.6120    -1.1390 cc         1 DEY      -0.121000
     34 S35         -5.7740     2.6630     0.6970 ss         1 DEY       0.288000
     35 C6          -6.0980     4.2400     0.1270 cd         1 DEY      -0.242000
     36 C1          -5.2220     4.6200    -0.8450 cc         1 DEY      -0.131000
     37 H5           4.6230    -1.2680    -0.3780 ha         1 DEY       0.129000
     38 H22          6.6440    -0.7430    -0.5860 h1         1 DEY       0.048700
     39 H17          7.5040    -2.2010     1.2300 hc         1 DEY       0.056367
     40 H17A         7.1510    -0.9560     2.4350 hc         1 DEY       0.056367
     41 H17B         5.8370    -1.7730     1.5820 hc         1 DEY       0.056367
     42 HN28         8.7860    -1.1340    -1.1440 hn         1 DEY       0.317500
     43 HN2A        10.1080    -0.1730    -0.6120 hn         1 DEY       0.317500
     44 H3           4.5510     2.7450     1.1610 ha         1 DEY       0.136000
     45 HN26        -0.2730    -2.1110    -0.5130 hn         1 DEY       0.563000
     46 H2           2.1260     2.8460     0.7870 ha         1 DEY       0.133000
     47 HO33        -2.2420     3.1060    -0.0570 ho         1 DEY       0.491000
     48 H21         -5.5210    -1.8730    -1.1030 h1         1 DEY       0.077700
     49 H21A        -4.1460    -2.9700    -1.1170 h1         1 DEY       0.077700
     50 H20         -4.1190    -2.9710     1.3900 hc         1 DEY       0.054200
     51 H20A        -5.4160    -1.7840     1.4000 hc         1 DEY       0.054200
     52 H23         -6.9180    -3.4330     0.2790 hc         1 DEY       0.044700
     53 H19         -5.2340    -4.9060    -0.8290 hc         1 DEY       0.036200
     54 H19A        -4.6140    -5.3870     0.7500 hc         1 DEY       0.036200
     55 H19B        -6.2450    -5.8450     0.2570 hc         1 DEY       0.036200
     56 H18         -6.9120    -3.1480     2.7580 hc         1 DEY       0.036200
     57 H18A        -7.2830    -4.8110     2.3100 hc         1 DEY       0.036200
     58 H18B        -5.6740    -4.3970     2.8990 hc         1 DEY       0.036200
     59 H4          -3.5200     3.7050    -1.9150 ha         1 DEY       0.144000
     60 H6          -6.9170     4.8090     0.5390 h4         1 DEY       0.158000
     61 H1          -5.2560     5.5790    -1.3410 ha         1 DEY       0.144000
@<TRIPOS>BOND
     1     1     2 2   
     2     2     3 2   
     3     2     4 1   
     4     2    14 1   
     5     4     5 ar  
     6     4    17 ar  
     7     5     6 ar  
     8     5    37 1   
     9     6     7 1   
    10     6    13 ar  
    11     7     8 1   
    12     8     9 1   
    13     8    10 1   
    14     8    38 1   
    15     9    39 1   
    16     9    40 1   
    17     9    41 1   
    18    10    11 2   
    19    10    12 1   
    20    12    42 1   
    21    12    43 1   
    22    13    18 ar  
    23    13    44 1   
    24    14    15 1   
    25    14    45 1   
    26    15    16 2   
    27    15    19 1   
    28    16    17 1   
    29    17    18 ar  
    30    18    46 1   
    31    19    20 2   
    32    19    22 1   
    33    20    21 1   
    34    20    31 1   
    35    21    47 1   
    36    22    23 2   
    37    22    24 1   
    38    24    25 1   
    39    24    30 1   
    40    25    26 1   
    41    25    48 1   
    42    25    49 1   
    43    26    27 1   
    44    26    50 1   
    45    26    51 1   
    46    27    28 1   
    47    27    29 1   
    48    27    52 1   
    49    28    53 1   
    50    28    54 1   
    51    28    55 1   
    52    29    56 1   
    53    29    57 1   
    54    29    58 1   
    55    30    31 2   
    56    31    32 1   
    57    32    33 2   
    58    32    34 1   
    59    33    36 1   
    60    33    59 1   
    61    34    35 1   
    62    35    36 2   
    63    35    60 1   
    64    36    61 1   
@<TRIPOS>SUBSTRUCTURE
     1 DEY         1 TEMP              0 ****  ****    0 ROOT
