@<TRIPOS>MOLECULE
DEY
   61    64     1     0     0
SMALL
No Charge or Current Charge


@<TRIPOS>ATOM
      1 O32          2.4930    -3.0080     1.5260 o          1 DEY      -0.537000
      2 S36          1.7450    -1.9760     0.8070 sy         1 DEY       1.200600
      3 O31          1.2230    -2.2050    -0.5400 o          1 DEY      -0.537000
      4 C9           2.6260    -0.4330     0.8580 ca         1 DEY      -0.297500
      5 C5           3.9250    -0.2760     0.3270 ca         1 DEY      -0.103000
      6 C8           4.5600     0.9860     0.4040 ca         1 DEY       0.127100
      7 O34          5.8270     1.2260    -0.0980 os         1 DEY      -0.319100
      8 C22          6.7240     0.1820    -0.5580 c3         1 DEY       0.090300
      9 C17          7.2540    -0.5780     0.6880 c3         1 DEY      -0.122100
     10 C16          7.8800     0.7770    -1.4190 c          1 DEY       0.608100
     11 O30          8.0070     1.9660    -1.6740 o          1 DEY      -0.570100
     12 N28          8.7880    -0.1060    -1.9060 nt         1 DEY      -0.611000
     13 C3           3.8790     2.0670     0.9960 ca         1 DEY      -0.085000
     14 N26          0.3820    -1.7350     1.7100 nu         1 DEY      -0.904300
     15 C14         -0.1220    -0.4810     1.4940 ce         1 DEY       0.760500
     16 N24          0.6720     0.4320     1.9730 nf         1 DEY      -0.636100
     17 C7           1.9630     0.6390     1.4520 ca         1 DEY       0.212400
     18 C2           2.5840     1.8950     1.5210 ca         1 DEY      -0.070000
     19 C12         -1.4240    -0.3000     0.8180 cc         1 DEY      -0.337800
     20 C13         -1.9630     0.9600     0.5120 cd         1 DEY       0.168500
     21 O33         -1.3260     2.0850     0.9100 oh         1 DEY      -0.453100
     22 C15         -2.2200    -1.5120     0.4630 c          1 DEY       0.562200
     23 O29         -1.8570    -2.6630     0.6760 o          1 DEY      -0.565000
     24 N27         -3.4720    -1.2530    -0.1370 n          1 DEY      -0.102800
     25 C21         -4.3610    -2.3800    -0.5110 c3         1 DEY       0.111000
     26 C20         -5.4270    -2.6860     0.5690 c3         1 DEY      -0.095400
     27 C23         -6.4470    -3.7880     0.1760 c3         1 DEY      -0.056700
     28 C19         -5.7790    -5.1620    -0.0730 c3         1 DEY      -0.090100
     29 C18         -7.5660    -3.9070     1.2350 c3         1 DEY      -0.090100
     30 N25         -3.9740    -0.0210    -0.4560 nc         1 DEY      -0.382300
     31 C11         -3.2570     1.0590    -0.1890 cd         1 DEY       0.346200
     32 C10         -3.8650     2.3050    -0.6430 cd         1 DEY      -0.291900
     33 C4          -3.2590     3.5450    -0.7390 cc         1 DEY      -0.121000
     34 S35         -5.5350     2.3590    -1.2620 ss         1 DEY       0.288000
     35 C6          -5.3810     4.0990    -1.5530 cd         1 DEY      -0.242000
     36 C1          -4.1240     4.5470    -1.2440 cc         1 DEY      -0.131000
     37 H5           4.4150    -1.1290    -0.1350 ha         1 DEY       0.129000
     38 H22          6.1960    -0.5190    -1.2150 h1         1 DEY       0.048700
     39 H17          7.8880    -1.4220     0.3910 hc         1 DEY       0.056367
     40 H17A         7.8510     0.0910     1.3200 hc         1 DEY       0.056367
     41 H17B         6.4340    -0.9790     1.2940 hc         1 DEY       0.056367
     42 HN28         8.6950    -1.0920    -1.7100 hn         1 DEY       0.317500
     43 HN2A         9.5530     0.2350    -2.4690 hn         1 DEY       0.317500
     44 H3           4.3600     3.0400     1.0490 ha         1 DEY       0.136000
     45 HN26        -0.2420    -2.4320     1.3270 hn         1 DEY       0.563000
     46 H2           2.0650     2.7310     1.9810 ha         1 DEY       0.133000
     47 HO33        -1.9850     2.8090     0.8900 ho         1 DEY       0.491000
     48 H21         -4.8700    -2.1260    -1.4500 h1         1 DEY       0.077700
     49 H21A        -3.7610    -3.2750    -0.7100 h1         1 DEY       0.077700
     50 H20         -4.9200    -2.9720     1.4990 hc         1 DEY       0.054200
     51 H20A        -5.9750    -1.7590     0.7830 hc         1 DEY       0.054200
     52 H23         -6.9250    -3.4800    -0.7630 hc         1 DEY       0.044700
     53 H19         -5.0840    -5.1200    -0.9190 hc         1 DEY       0.036200
     54 H19A        -5.2260    -5.4940     0.8140 hc         1 DEY       0.036200
     55 H19B        -6.5350    -5.9220    -0.3070 hc         1 DEY       0.036200
     56 H18         -8.0790    -2.9470     1.3690 hc         1 DEY       0.036200
     57 H18A        -8.3140    -4.6480     0.9290 hc         1 DEY       0.036200
     58 H18B        -7.1550    -4.2150     2.2050 hc         1 DEY       0.036200
     59 H4          -2.2250     3.7950    -0.5310 ha         1 DEY       0.144000
     60 H6          -6.2160     4.6600    -1.9540 h4         1 DEY       0.158000
     61 H1          -3.7980     5.5750    -1.3810 ha         1 DEY       0.144000
@<TRIPOS>BOND
     1     1     2 2   
     2     2     3 2   
     3     2     4 1   
     4     2    14 1   
     5     4     5 ar  
     6     4    17 ar  
     7     5     6 ar  
     8     5    37 1   
     9     6     7 1   
    10     6    13 ar  
    11     7     8 1   
    12     8     9 1   
    13     8    10 1   
    14     8    38 1   
    15     9    39 1   
    16     9    40 1   
    17     9    41 1   
    18    10    11 2   
    19    10    12 1   
    20    12    42 1   
    21    12    43 1   
    22    13    18 ar  
    23    13    44 1   
    24    14    15 1   
    25    14    45 1   
    26    15    16 2   
    27    15    19 1   
    28    16    17 1   
    29    17    18 ar  
    30    18    46 1   
    31    19    20 2   
    32    19    22 1   
    33    20    21 1   
    34    20    31 1   
    35    21    47 1   
    36    22    23 2   
    37    22    24 1   
    38    24    25 1   
    39    24    30 1   
    40    25    26 1   
    41    25    48 1   
    42    25    49 1   
    43    26    27 1   
    44    26    50 1   
    45    26    51 1   
    46    27    28 1   
    47    27    29 1   
    48    27    52 1   
    49    28    53 1   
    50    28    54 1   
    51    28    55 1   
    52    29    56 1   
    53    29    57 1   
    54    29    58 1   
    55    30    31 2   
    56    31    32 1   
    57    32    33 2   
    58    32    34 1   
    59    33    36 1   
    60    33    59 1   
    61    34    35 1   
    62    35    36 2   
    63    35    60 1   
    64    36    61 1   
@<TRIPOS>SUBSTRUCTURE
     1 DEY         1 TEMP              0 ****  ****    0 ROOT
