@<TRIPOS>MOLECULE
DF0
   27    28     1     0     0
SMALL
abcg2


@<TRIPOS>ATOM
      1 O            3.7020     0.6470     1.3020 o          1 DF0      -0.721000
      2 C7           4.3050     0.1000     0.3640 c          1 DF0       0.727000
      3 O1           5.5350    -0.0670     0.2530 o          1 DF0      -0.721000
      4 C6           3.4600    -0.4300    -0.8250 c3         1 DF0      -0.199100
      5 C4           1.9840    -0.3630    -0.6080 ca         1 DF0       0.048700
      6 C5           1.2840     0.8190    -0.8310 ca         1 DF0      -0.147000
      7 C           -0.0760     0.8660    -0.6070 ca         1 DF0       0.177000
      8 F           -0.7180     2.0200    -0.8680 f          1 DF0      -0.200000
      9 C3           1.2690    -1.4720    -0.1620 ca         1 DF0      -0.141000
     10 C2          -0.0970    -1.4010     0.0590 ca         1 DF0      -0.078000
     11 C1          -0.8130    -0.2220    -0.1530 cp         1 DF0      -0.133000
     12 C8          -2.2720    -0.1620     0.0690 cp         1 DF0       0.007000
     13 C13         -2.8580     0.8560     0.8240 ca         1 DF0      -0.100500
     14 C12         -4.2270     0.8700     1.0490 ca         1 DF0      -0.119000
     15 C11         -5.0350    -0.1290     0.5210 ca         1 DF0      -0.127000
     16 C10         -4.4630    -1.1450    -0.2320 ca         1 DF0      -0.119000
     17 C9          -3.0940    -1.1600    -0.4550 ca         1 DF0      -0.100500
     18 H2           3.7370     0.1490    -1.7120 hc         1 DF0       0.035700
     19 H3           3.7600    -1.4600    -1.0340 hc         1 DF0       0.035700
     20 H4           1.7920     1.7030    -1.1960 ha         1 DF0       0.130000
     21 H5           1.7880    -2.4050     0.0210 ha         1 DF0       0.112000
     22 H6          -0.6240    -2.2760     0.4180 ha         1 DF0       0.097000
     23 H7          -2.2430     1.6300     1.2640 ha         1 DF0       0.118500
     24 H8          -4.6630     1.6630     1.6420 ha         1 DF0       0.100500
     25 H9          -6.1030    -0.1150     0.6990 ha         1 DF0       0.098000
     26 H10         -5.0830    -1.9270    -0.6510 ha         1 DF0       0.100500
     27 H11         -2.6580    -1.9510    -1.0540 ha         1 DF0       0.118500
@<TRIPOS>BOND
     1     1     2 1   
     2     2     3 1   
     3     2     4 1   
     4     4     5 1   
     5     4    18 1   
     6     4    19 1   
     7     5     6 ar  
     8     5     9 ar  
     9     6     7 ar  
    10     6    20 1   
    11     7     8 1   
    12     7    11 ar  
    13     9    10 ar  
    14     9    21 1   
    15    10    11 ar  
    16    10    22 1   
    17    11    12 1   
    18    12    13 ar  
    19    12    17 ar  
    20    13    14 ar  
    21    13    23 1   
    22    14    15 ar  
    23    14    24 1   
    24    15    16 ar  
    25    15    25 1   
    26    16    17 ar  
    27    16    26 1   
    28    17    27 1   
@<TRIPOS>SUBSTRUCTURE
     1 DF0         1 TEMP              0 ****  ****    0 ROOT
