@<TRIPOS>MOLECULE
DF0
   27    28     1     0     0
SMALL
No Charge or Current Charge


@<TRIPOS>ATOM
      1 O            4.4810     1.1890     0.6370 o          1 DF0      -0.721000
      2 C7           4.2710     0.0120     0.3830 c          1 DF0       0.727000
      3 O1           4.5170    -0.9010     1.1570 o          1 DF0      -0.721000
      4 C6           3.5250    -0.3230    -0.9140 c3         1 DF0      -0.199100
      5 C4           2.0240    -0.2810    -0.6570 ca         1 DF0       0.048700
      6 C5           1.3060     0.9180    -0.8140 ca         1 DF0      -0.147000
      7 C           -0.0770     0.9570    -0.5810 ca         1 DF0       0.177000
      8 F           -0.7250     2.1280    -0.7770 f          1 DF0      -0.200000
      9 C3           1.3340    -1.4430    -0.2670 ca         1 DF0      -0.141000
     10 C2          -0.0510    -1.4070    -0.0340 ca         1 DF0      -0.078000
     11 C1          -0.7880    -0.2060    -0.1810 cp         1 DF0      -0.133000
     12 C8          -2.2630    -0.1940     0.0750 cp         1 DF0       0.007000
     13 C13         -2.8760     0.8390     0.8270 ca         1 DF0      -0.100500
     14 C12         -4.2610     0.8360     1.0710 ca         1 DF0      -0.119000
     15 C11         -5.0600    -0.2040     0.5710 ca         1 DF0      -0.127000
     16 C10         -4.4740    -1.2420    -0.1710 ca         1 DF0      -0.119000
     17 C9          -3.0890    -1.2380    -0.4130 ca         1 DF0      -0.100500
     18 H2           3.7420     0.4320    -1.6800 hc         1 DF0       0.035700
     19 H3           3.7700    -1.3410    -1.2390 hc         1 DF0       0.035700
     20 H4           1.8210     1.8240    -1.1210 ha         1 DF0       0.130000
     21 H5           1.8740    -2.3790    -0.1390 ha         1 DF0       0.112000
     22 H6          -0.5580    -2.3190     0.2750 ha         1 DF0       0.097000
     23 H7          -2.2700     1.6440     1.2350 ha         1 DF0       0.118500
     24 H8          -4.7120     1.6380     1.6510 ha         1 DF0       0.100500
     25 H9          -6.1310    -0.2070     0.7590 ha         1 DF0       0.098000
     26 H10         -5.0910    -2.0500    -0.5590 ha         1 DF0       0.100500
     27 H11         -2.6500    -2.0450    -0.9950 ha         1 DF0       0.118500
@<TRIPOS>BOND
     1     1     2 1   
     2     2     3 1   
     3     2     4 1   
     4     4     5 1   
     5     4    18 1   
     6     4    19 1   
     7     5     6 ar  
     8     5     9 ar  
     9     6     7 ar  
    10     6    20 1   
    11     7     8 1   
    12     7    11 ar  
    13     9    10 ar  
    14     9    21 1   
    15    10    11 ar  
    16    10    22 1   
    17    11    12 1   
    18    12    13 ar  
    19    12    17 ar  
    20    13    14 ar  
    21    13    23 1   
    22    14    15 ar  
    23    14    24 1   
    24    15    16 ar  
    25    15    25 1   
    26    16    17 ar  
    27    16    26 1   
    28    17    27 1   
@<TRIPOS>SUBSTRUCTURE
     1 DF0         1 TEMP              0 ****  ****    0 ROOT
