@<TRIPOS>MOLECULE
DF1
   46    49     1     0     0
SMALL
No Charge or Current Charge


@<TRIPOS>ATOM
      1 C17          1.7050     1.1930    -0.4710 ca         1 DF1      -0.107000
      2 C18          3.0740     1.2610    -0.1610 ca         1 DF1      -0.107500
      3 C19          3.7290     0.1390     0.3760 ca         1 DF1      -0.107000
      4 C20          3.0150    -1.0500     0.6010 ca         1 DF1      -0.107500
      5 C21          1.6460    -1.1170     0.2890 ca         1 DF1      -0.107000
      6 C15          0.9870     0.0030    -0.2510 ca         1 DF1      -0.025800
      7 C7          -0.4410    -0.0550    -0.5350 cc         1 DF1      -0.038400
      8 C6          -1.5060    -0.0370     0.4200 ca         1 DF1      -0.249800
      9 C4          -1.5110    -0.0300     1.8190 ca         1 DF1       0.436900
     10 N10         -0.3300    -0.0500     2.5450 nu         1 DF1      -0.916100
     11 C11         -0.1430     0.4750     3.9170 c3         1 DF1       0.193800
     12 C12          1.2320     0.0370     4.4950 c3         1 DF1       0.147300
     13 C14          1.3900     0.3670     5.9910 c3         1 DF1      -0.125100
     14 O13          1.3790    -1.3770     4.3060 oh         1 DF1      -0.658000
     15 N3          -2.6760     0.0180     2.4900 nb         1 DF1      -0.309000
     16 C2          -3.7990     0.0560     1.7340 ca         1 DF1       0.181900
     17 N1          -3.8650     0.0610     0.3800 nb         1 DF1      -0.236000
     18 C5          -2.6860     0.0170    -0.2680 ca         1 DF1       0.152500
     19 N9          -2.4200     0.0330    -1.6280 na         1 DF1      -0.308400
     20 C8          -1.0110     0.0060    -1.8100 cd         1 DF1      -0.009300
     21 C16         -0.3730    -0.0260    -3.1550 ca         1 DF1      -0.038800
     22 C22         -1.1550     0.2710    -4.2980 ca         1 DF1      -0.096000
     23 C23         -0.5960     0.2520    -5.5870 ca         1 DF1      -0.110000
     24 C24          0.7560    -0.0730    -5.7640 ca         1 DF1      -0.103000
     25 C25          1.5440    -0.3840    -4.6480 ca         1 DF1      -0.110000
     26 C26          0.9870    -0.3640    -3.3580 ca         1 DF1      -0.096000
     27 H17          1.1980     2.0650    -0.8800 ha         1 DF1       0.118000
     28 H18          3.6260     2.1820    -0.3340 ha         1 DF1       0.113000
     29 H19          4.7890     0.1910     0.6170 ha         1 DF1       0.113000
     30 H20          3.5210    -1.9180     1.0180 ha         1 DF1       0.113000
     31 H21          1.0950    -2.0380     0.4660 ha         1 DF1       0.118000
     32 H10          0.4820     0.0090     1.9280 hn         1 DF1       0.516000
     33 H111        -0.9340     0.0920     4.5770 h1         1 DF1       0.057700
     34 H112        -0.2120     1.5720     3.9200 h1         1 DF1       0.057700
     35 H12          2.0170     0.5720     3.9390 h1         1 DF1       0.083700
     36 H141         2.3780     0.0580     6.3530 hc         1 DF1       0.045700
     37 H142         1.2880     1.4460     6.1590 hc         1 DF1       0.045700
     38 H143         0.6270    -0.1480     6.5890 hc         1 DF1       0.045700
     39 H13          0.7300    -1.5920     3.5960 ho         1 DF1       0.439000
     40 H2          -4.7470     0.0920     2.2690 h5         1 DF1       0.042100
     41 H9          -3.1180     0.0440    -2.3610 hn         1 DF1       0.364000
     42 H22         -2.2040     0.5370    -4.1980 ha         1 DF1       0.119000
     43 H23         -1.2140     0.4920    -6.4500 ha         1 DF1       0.115000
     44 H24          1.1880    -0.0890    -6.7620 ha         1 DF1       0.114000
     45 H25          2.5910    -0.6500    -4.7820 ha         1 DF1       0.115000
     46 H26          1.6290    -0.6460    -2.5330 ha         1 DF1       0.119000
@<TRIPOS>BOND
     1     1     2 ar  
     2     1     6 ar  
     3     1    27 1   
     4     2     3 ar  
     5     2    28 1   
     6     3     4 ar  
     7     3    29 1   
     8     4     5 ar  
     9     4    30 1   
    10     5     6 ar  
    11     5    31 1   
    12     6     7 1   
    13     7     8 1   
    14     7    20 2   
    15     8     9 ar  
    16     8    18 ar  
    17     9    10 1   
    18     9    15 ar  
    19    10    11 1   
    20    10    32 1   
    21    11    12 1   
    22    11    33 1   
    23    11    34 1   
    24    12    13 1   
    25    12    14 1   
    26    12    35 1   
    27    13    36 1   
    28    13    37 1   
    29    13    38 1   
    30    14    39 1   
    31    15    16 ar  
    32    16    17 ar  
    33    16    40 1   
    34    17    18 ar  
    35    18    19 1   
    36    19    20 1   
    37    19    41 1   
    38    20    21 1   
    39    21    22 ar  
    40    21    26 ar  
    41    22    23 ar  
    42    22    42 1   
    43    23    24 ar  
    44    23    43 1   
    45    24    25 ar  
    46    24    44 1   
    47    25    26 ar  
    48    25    45 1   
    49    26    46 1   
@<TRIPOS>SUBSTRUCTURE
     1 DF1         1 TEMP              0 ****  ****    0 ROOT
