@<TRIPOS>MOLECULE
DF1
   46    49     1     0     0
SMALL
abcg2


@<TRIPOS>ATOM
      1 C17          1.9610     0.9730    -0.8490 ca         1 DF1      -0.107000
      2 C18          3.3300     0.9530    -0.6290 ca         1 DF1      -0.107500
      3 C19          3.9080    -0.0830     0.0940 ca         1 DF1      -0.107000
      4 C20          3.1080    -1.1030     0.5900 ca         1 DF1      -0.107500
      5 C21          1.7400    -1.0910     0.3570 ca         1 DF1      -0.107000
      6 C15          1.1480    -0.0500    -0.3600 ca         1 DF1      -0.025800
      7 C7          -0.3050    -0.0280    -0.5830 cc         1 DF1      -0.038400
      8 C6          -1.3300     0.0050     0.4170 ca         1 DF1      -0.249800
      9 C4          -1.4090     0.0570     1.8300 ca         1 DF1       0.436900
     10 N10         -0.3230     0.1100     2.6130 nu         1 DF1      -0.916100
     11 C11         -0.3620     0.0530     4.0540 c3         1 DF1       0.193800
     12 C12          0.9610     0.5410     4.6340 c3         1 DF1       0.147300
     13 C14          0.9540     0.4370     6.1500 c3         1 DF1      -0.125100
     14 O13          2.0590    -0.1350     4.0520 oh         1 DF1      -0.658000
     15 N3          -2.6130     0.0770     2.4090 nb         1 DF1      -0.309000
     16 C2          -3.6990     0.0880     1.6390 ca         1 DF1       0.181900
     17 N1          -3.7650     0.0880     0.3240 nb         1 DF1      -0.236000
     18 C5          -2.5590     0.0530    -0.2480 ca         1 DF1       0.152500
     19 N9          -2.3090     0.0620    -1.5760 na         1 DF1      -0.308400
     20 C8          -0.9520     0.0030    -1.7980 cd         1 DF1      -0.009300
     21 C16         -0.4180    -0.0130    -3.1590 ca         1 DF1      -0.038800
     22 C22         -1.0410     0.7210    -4.1720 ca         1 DF1      -0.096000
     23 C23         -0.5390     0.7060    -5.4650 ca         1 DF1      -0.110000
     24 C24          0.5940    -0.0370    -5.7670 ca         1 DF1      -0.103000
     25 C25          1.2170    -0.7730    -4.7670 ca         1 DF1      -0.110000
     26 C26          0.7150    -0.7660    -3.4750 ca         1 DF1      -0.096000
     27 H17          1.5140     1.7920    -1.3990 ha         1 DF1       0.118000
     28 H18          3.9470     1.7540    -1.0170 ha         1 DF1       0.113000
     29 H19          4.9760    -0.0930     0.2720 ha         1 DF1       0.113000
     30 H20          3.5490    -1.9160     1.1510 ha         1 DF1       0.113000
     31 H21          1.1270    -1.9060     0.7260 ha         1 DF1       0.118000
     32 H10          0.5810    -0.0250     2.1870 hn         1 DF1       0.516000
     33 H111        -0.5690    -0.9670     4.4040 h1         1 DF1       0.057700
     34 H112        -1.1700     0.6830     4.4260 h1         1 DF1       0.057700
     35 H12          1.0910     1.5900     4.3500 h1         1 DF1       0.083700
     36 H141         1.8900     0.8060     6.5690 hc         1 DF1       0.045700
     37 H142         0.1410     1.0260     6.5750 hc         1 DF1       0.045700
     38 H143         0.8200    -0.5980     6.4760 hc         1 DF1       0.045700
     39 H13          2.0230    -1.0620     4.3150 ho         1 DF1       0.439000
     40 H2          -4.6470     0.1030     2.1690 h5         1 DF1       0.042100
     41 H9          -3.0180     0.0230    -2.2920 hn         1 DF1       0.364000
     42 H22         -1.9130     1.3240    -3.9510 ha         1 DF1       0.119000
     43 H23         -1.0310     1.2860    -6.2350 ha         1 DF1       0.115000
     44 H24          0.9860    -0.0470    -6.7760 ha         1 DF1       0.114000
     45 H25          2.0960    -1.3630    -4.9940 ha         1 DF1       0.115000
     46 H26          1.1990    -1.3600    -2.7120 ha         1 DF1       0.119000
@<TRIPOS>BOND
     1     1     2 ar  
     2     1     6 ar  
     3     1    27 1   
     4     2     3 ar  
     5     2    28 1   
     6     3     4 ar  
     7     3    29 1   
     8     4     5 ar  
     9     4    30 1   
    10     5     6 ar  
    11     5    31 1   
    12     6     7 1   
    13     7     8 1   
    14     7    20 2   
    15     8     9 ar  
    16     8    18 ar  
    17     9    10 1   
    18     9    15 ar  
    19    10    11 1   
    20    10    32 1   
    21    11    12 1   
    22    11    33 1   
    23    11    34 1   
    24    12    13 1   
    25    12    14 1   
    26    12    35 1   
    27    13    36 1   
    28    13    37 1   
    29    13    38 1   
    30    14    39 1   
    31    15    16 ar  
    32    16    17 ar  
    33    16    40 1   
    34    17    18 ar  
    35    18    19 1   
    36    19    20 1   
    37    19    41 1   
    38    20    21 1   
    39    21    22 ar  
    40    21    26 ar  
    41    22    23 ar  
    42    22    42 1   
    43    23    24 ar  
    44    23    43 1   
    45    24    25 ar  
    46    24    44 1   
    47    25    26 ar  
    48    25    45 1   
    49    26    46 1   
@<TRIPOS>SUBSTRUCTURE
     1 DF1         1 TEMP              0 ****  ****    0 ROOT
