@<TRIPOS>MOLECULE
DF2
   47    50     1     0     0
SMALL
No Charge or Current Charge


@<TRIPOS>ATOM
      1 C2           3.3940     3.2940    -2.0020 ca         1 DF2       0.181900
      2 C10          5.6120    -0.5880    -1.3410 cc         1 DF2      -0.008300
      3 C11          6.4680    -1.7770    -1.3330 ca         1 DF2      -0.039800
      4 C12          6.9190    -2.3210    -2.5520 ca         1 DF2      -0.095500
      5 C13          7.7540    -3.4520    -2.5630 ca         1 DF2      -0.110000
      6 C14          8.1550    -4.0430    -1.3540 ca         1 DF2      -0.103000
      7 C15          7.7240    -3.4970    -0.1330 ca         1 DF2      -0.110000
      8 C16          6.8900    -2.3660    -0.1230 ca         1 DF2      -0.095500
      9 C19          3.7870    -2.6470     0.1360 ca         1 DF2      -0.105500
     10 C20          3.2310    -3.5550     1.0540 ca         1 DF2      -0.108500
     11 C21          2.8260    -3.1120     2.3230 ca         1 DF2      -0.105000
     12 C22          2.9870    -1.7620     2.6760 ca         1 DF2      -0.108500
     13 N1           4.4850     2.6430    -2.4640 nb         1 DF2      -0.233000
     14 C26          0.2980     1.1020     3.1960 c3         1 DF2       0.168600
     15 C6           4.7490     1.4600    -1.8830 ca         1 DF2       0.151500
     16 C5           3.9630     0.9540    -0.8670 ca         1 DF2      -0.248800
     17 O27         -0.5340     0.4610     4.1830 oh         1 DF2      -0.652000
     18 C4           2.8130     1.6700    -0.4830 ca         1 DF2       0.432900
     19 N3           2.5350     2.8590    -1.0530 nb         1 DF2      -0.309000
     20 N90          5.7350     0.5350    -2.1680 na         1 DF2      -0.308400
     21 C17          3.5410    -0.8560     1.7560 ca         1 DF2      -0.105500
     22 C1           4.5420    -0.3340    -0.4860 cd         1 DF2      -0.037400
     23 C18          3.9330    -1.2840     0.4700 ca         1 DF2      -0.030800
     24 C23         -0.2330     0.8540     1.7520 c3         1 DF2       0.152300
     25 C8           0.5330     1.7140     0.7000 c3         1 DF2       0.189800
     26 O24         -0.1540    -0.5520     1.4100 oh         1 DF2      -0.650000
     27 H2           3.1690     4.2550    -2.4610 h5         1 DF2       0.043100
     28 H12          6.6120    -1.8740    -3.4950 ha         1 DF2       0.119000
     29 H13          8.0900    -3.8700    -3.5100 ha         1 DF2       0.115500
     30 H14          8.8010    -4.9180    -1.3620 ha         1 DF2       0.115000
     31 H15          8.0400    -3.9480     0.8060 ha         1 DF2       0.115500
     32 H16          6.5760    -1.9450     0.8290 ha         1 DF2       0.119000
     33 H19          4.0860    -3.0030    -0.8460 ha         1 DF2       0.118500
     34 H20          3.1130    -4.6010     0.7800 ha         1 DF2       0.114000
     35 H21          2.3970    -3.8140     3.0350 ha         1 DF2       0.114000
     36 H22          2.6910    -1.4210     3.6650 ha         1 DF2       0.114000
     37 H262         1.3300     0.7350     3.2700 h1         1 DF2       0.030700
     38 H27         -0.1090     0.6110     5.0570 ho         1 DF2       0.444000
     39 H90          6.4450     0.6600    -2.8780 hn         1 DF2       0.364000
     40 H17          3.7020     0.1770     2.0580 ha         1 DF2       0.118500
     41 H23         -1.2810     1.1830     1.7350 h1         1 DF2       0.052700
     42 H8C1        -0.0610     1.7430    -0.2250 h1         1 DF2       0.060200
     43 H8C2         0.6100     2.7470     1.0670 h1         1 DF2       0.060200
     44 H24         -0.6240    -0.6680     0.5560 ho         1 DF2       0.444000
     45 N9           1.8770     1.1710     0.4060 nu         1 DF2      -0.919100
     46 H261         0.3230     2.1840     3.3820 h1         1 DF2       0.030700
     47 HN1          2.0460     0.2080     0.7000 hn         1 DF2       0.515000
@<TRIPOS>BOND
     1     1    13 ar  
     2     1    19 ar  
     3     1    27 1   
     4     2     3 1   
     5     2    20 1   
     6     2    22 2   
     7     3     4 ar  
     8     3     8 ar  
     9     4     5 ar  
    10     4    28 1   
    11     5     6 ar  
    12     5    29 1   
    13     6     7 ar  
    14     6    30 1   
    15     7     8 ar  
    16     7    31 1   
    17     8    32 1   
    18     9    10 ar  
    19     9    23 ar  
    20     9    33 1   
    21    10    11 ar  
    22    10    34 1   
    23    11    12 ar  
    24    11    35 1   
    25    12    21 ar  
    26    12    36 1   
    27    13    15 ar  
    28    14    17 1   
    29    14    24 1   
    30    14    37 1   
    31    14    46 1   
    32    15    16 ar  
    33    15    20 1   
    34    16    18 ar  
    35    16    22 1   
    36    17    38 1   
    37    18    19 ar  
    38    18    45 1   
    39    20    39 1   
    40    21    23 ar  
    41    21    40 1   
    42    22    23 1   
    43    24    25 1   
    44    24    26 1   
    45    24    41 1   
    46    25    42 1   
    47    25    43 1   
    48    25    45 1   
    49    26    44 1   
    50    45    47 1   
@<TRIPOS>SUBSTRUCTURE
     1 DF2         1 TEMP              0 ****  ****    0 ROOT
