@<TRIPOS>MOLECULE
DF2
   47    50     1     0     0
SMALL
bcc


@<TRIPOS>ATOM
      1 C2           3.3650     3.1080    -1.9400 ca         1 DF2       0.707900
      2 C10          5.5130    -0.6640    -1.2160 cc         1 DF2      -0.008300
      3 C11          6.5130    -1.7300    -1.2600 ca         1 DF2      -0.039800
      4 C12          7.1580    -2.0440    -2.4590 ca         1 DF2      -0.113500
      5 C13          8.1160    -3.0460    -2.5050 ca         1 DF2      -0.128000
      6 C14          8.4430    -3.7530    -1.3550 ca         1 DF2      -0.121000
      7 C15          7.8090    -3.4450    -0.1580 ca         1 DF2      -0.128000
      8 C16          6.8570    -2.4400    -0.1070 ca         1 DF2      -0.113500
      9 C19          3.5060    -2.8370     0.0270 ca         1 DF2      -0.123500
     10 C20          2.9760    -3.7650     0.9100 ca         1 DF2      -0.126500
     11 C21          2.7200    -3.4110     2.2290 ca         1 DF2      -0.123000
     12 C22          3.0030    -2.1220     2.6600 ca         1 DF2      -0.126500
     13 N1           4.4660     2.5080    -2.3420 nb         1 DF2      -0.759000
     14 C26          0.5910     1.3960     3.0610 c3         1 DF2       0.145400
     15 C6           4.6340     1.3130    -1.7700 ca         1 DF2       0.479800
     16 C5           3.7830     0.7170    -0.8340 ca         1 DF2      -0.379400
     17 O27         -0.1760     1.0760     4.1970 oh         1 DF2      -0.589800
     18 C4           2.6150     1.4570    -0.5290 ca         1 DF2       0.761200
     19 N3           2.4440     2.6560    -1.0910 nb         1 DF2      -0.835000
     20 N90          5.6590     0.4620    -1.9950 na         1 DF2      -0.258100
     21 C17          3.5440    -1.1960     1.7790 ca         1 DF2      -0.123500
     22 C1           4.3540    -0.5480    -0.4820 cd         1 DF2      -0.037400
     23 C18          3.7980    -1.5400     0.4500 ca         1 DF2      -0.030800
     24 C23         -0.2410     1.1370     1.8200 c3         1 DF2       0.129100
     25 C8           0.4280     1.6880     0.5650 c3         1 DF2       0.189800
     26 O24         -0.4540    -0.2550     1.7220 oh         1 DF2      -0.587800
     27 H2           3.1720     4.0920    -2.3570 h5         1 DF2       0.043100
     28 H12          6.9010    -1.5160    -3.3690 ha         1 DF2       0.137000
     29 H13          8.6040    -3.2760    -3.4430 ha         1 DF2       0.133500
     30 H14          9.1890    -4.5360    -1.3910 ha         1 DF2       0.133000
     31 H15          8.0650    -3.9840     0.7460 ha         1 DF2       0.133500
     32 H16          6.3880    -2.1960     0.8370 ha         1 DF2       0.137000
     33 H19          3.6930    -3.1170    -1.0030 ha         1 DF2       0.136500
     34 H20          2.7550    -4.7680     0.5670 ha         1 DF2       0.132000
     35 H21          2.3020    -4.1360     2.9160 ha         1 DF2       0.132000
     36 H22          2.8100    -1.8360     3.6860 ha         1 DF2       0.132000
     37 H262         1.5140     0.8020     3.0170 h1         1 DF2       0.030700
     38 H27          0.3790     1.1960     4.9730 ho         1 DF2       0.405000
     39 H90          6.4570     0.6670    -2.5770 hn         1 DF2       0.313700
     40 H17          3.7830    -0.1990     2.1280 ha         1 DF2       0.136500
     41 H23         -1.1930     1.6770     1.9290 h1         1 DF2       0.052700
     42 H8C1        -0.2570     1.5890    -0.2850 h1         1 DF2       0.060200
     43 H8C2         0.6140     2.7550     0.6890 h1         1 DF2       0.060200
     44 H24         -1.0930    -0.4170     1.0210 ho         1 DF2       0.405000
     45 N9           1.6740     1.0040     0.3120 nu         1 DF2      -0.863900
     46 H261         0.8880     2.4530     3.0570 h1         1 DF2       0.030700
     47 HN1          1.7170     0.0350     0.5900 hn         1 DF2       0.459800
@<TRIPOS>BOND
     1     1    13 ar  
     2     1    19 ar  
     3     1    27 1   
     4     2     3 1   
     5     2    20 1   
     6     2    22 2   
     7     3     4 ar  
     8     3     8 ar  
     9     4     5 ar  
    10     4    28 1   
    11     5     6 ar  
    12     5    29 1   
    13     6     7 ar  
    14     6    30 1   
    15     7     8 ar  
    16     7    31 1   
    17     8    32 1   
    18     9    10 ar  
    19     9    23 ar  
    20     9    33 1   
    21    10    11 ar  
    22    10    34 1   
    23    11    12 ar  
    24    11    35 1   
    25    12    21 ar  
    26    12    36 1   
    27    13    15 ar  
    28    14    17 1   
    29    14    24 1   
    30    14    37 1   
    31    14    46 1   
    32    15    16 ar  
    33    15    20 1   
    34    16    18 ar  
    35    16    22 1   
    36    17    38 1   
    37    18    19 ar  
    38    18    45 1   
    39    20    39 1   
    40    21    23 ar  
    41    21    40 1   
    42    22    23 1   
    43    24    25 1   
    44    24    26 1   
    45    24    41 1   
    46    25    42 1   
    47    25    43 1   
    48    25    45 1   
    49    26    44 1   
    50    45    47 1   
@<TRIPOS>SUBSTRUCTURE
     1 DF2         1 TEMP              0 ****  ****    0 ROOT
