@<TRIPOS>MOLECULE
DF3
   63    67     1     0     0
SMALL
bcc


@<TRIPOS>ATOM
      1 OAA         -5.5390     2.0880     0.1290 o          1 DF3      -0.558100
      2 OAB          5.2560     1.4010    -0.0070 o          1 DF3      -0.592100
      3 FAC         10.1180    -0.4460     0.9740 f          1 DF3      -0.231967
      4 FAD         10.1760     0.5260    -0.9410 f          1 DF3      -0.231967
      5 FAE         10.8660    -1.5030    -0.7450 f          1 DF3      -0.231967
      6 CAF          7.0100    -2.7680    -1.4740 ca         1 DF3      -0.143000
      7 CAG          0.8210     5.7210     1.1430 ca         1 DF3      -0.158000
      8 CAH          2.0960     5.2060     0.8560 ca         1 DF3      -0.105000
      9 CAI          5.9430    -1.9630    -1.1120 ca         1 DF3      -0.080000
     10 CAJ          8.3120    -2.3600    -1.2260 ca         1 DF3      -0.056000
     11 CAK         -7.8070     0.2600    -0.1390 ca         1 DF3      -0.145000
     12 CAL         -9.0840    -0.2820    -0.1410 ca         1 DF3      -0.100000
     13 CAM         -0.3170     4.9730     0.9140 ca         1 DF3      -0.074000
     14 CAN          2.2590     3.9370     0.3360 ca         1 DF3      -0.147000
     15 CAO         -6.9080    -1.9670    -0.2410 ca         1 DF3      -0.188000
     16 CAP          7.4720    -0.3130    -0.2730 ca         1 DF3      -0.026000
     17 CAQ         -0.3670     1.6040    -0.4350 cc         1 DF3      -0.125100
     18 CAR          2.7040     0.4150     0.4790 c3         1 DF3       0.079000
     19 CAS        -10.6690    -3.4780    -0.6190 c6         1 DF3       0.094400
     20 CAT         -9.6160    -4.3150     0.0660 c6         1 DF3       0.095400
     21 CAU          2.0510     1.0400    -0.7570 c3         1 DF3       0.028300
     22 CAV         -3.3630     1.1490    -0.1830 c3         1 DF3      -0.130300
     23 NAW          3.8650    -0.3650     0.1270 ns         1 DF3      -0.572900
     24 NAX         -5.3690    -0.1570    -0.2290 ns         1 DF3      -0.467100
     25 OAY        -10.5660    -2.1250    -0.2030 os         1 DF3      -0.302900
     26 OAZ         -8.3190    -3.8460    -0.2730 os         1 DF3      -0.308900
     27 SBA         -2.8420     2.8340     0.1920 ss         1 DF3      -0.119700
     28 CBB         -4.8740     1.0890    -0.0730 c          1 DF3       0.689100
     29 CBC          5.0600     0.1980    -0.1100 c          1 DF3       0.679700
     30 CBD         -6.7030    -0.5900    -0.2000 ca         1 DF3       0.073600
     31 CBE          6.1670    -0.7310    -0.5020 ca         1 DF3      -0.158600
     32 CBF          8.5390    -1.1290    -0.6250 ca         1 DF3      -0.205300
     33 CBG         -9.2960    -1.6500    -0.1920 ca         1 DF3       0.032100
     34 CBH         -8.1870    -2.5000    -0.2360 ca         1 DF3       0.086100
     35 CBI         -1.1080     2.6520     0.0350 cd         1 DF3      -0.041600
     36 CBJ         -0.1800     3.6850     0.3880 ca         1 DF3      -0.081800
     37 CBK          1.1070     3.1840     0.1030 ca         1 DF3      -0.037200
     38 NBL          0.9680     1.9230    -0.4020 na         1 DF3      -0.056400
     39 CBM          9.9270    -0.6450    -0.3380 c3         1 DF3       0.722200
     40 HAF          6.8280    -3.7180    -1.9570 ha         1 DF3       0.144000
     41 HAG          0.7330     6.7190     1.5540 ha         1 DF3       0.131000
     42 HAH          2.9700     5.8140     1.0490 ha         1 DF3       0.131000
     43 HAI          4.9390    -2.3010    -1.3370 ha         1 DF3       0.131000
     44 HAJ          9.1320    -3.0050    -1.5120 ha         1 DF3       0.154000
     45 HAK         -7.6940     1.3300    -0.1020 ha         1 DF3       0.172000
     46 HAL         -9.9410     0.3800    -0.1050 ha         1 DF3       0.150000
     47 HAM         -1.2950     5.3800     1.1410 ha         1 DF3       0.140000
     48 HAN          3.2470     3.5430     0.1280 ha         1 DF3       0.150000
     49 HAO         -6.0650    -2.6480    -0.2740 ha         1 DF3       0.140000
     50 HAP          7.6430     0.6520     0.1870 ha         1 DF3       0.171000
     51 HAQ         -0.6810     0.6410    -0.8060 h4         1 DF3       0.155000
     52 HAR          2.9830     1.1920     1.1920 h1         1 DF3       0.067200
     53 HARA         1.9940    -0.2420     0.9790 h1         1 DF3       0.067200
     54 HAS        -10.5620    -3.5480    -1.7070 h1         1 DF3       0.067200
     55 HASA       -11.6650    -3.8240    -0.3480 h1         1 DF3       0.067200
     56 HAT         -9.7530    -4.2870     1.1530 h1         1 DF3       0.067700
     57 HATA        -9.6790    -5.3510    -0.2610 h1         1 DF3       0.067700
     58 HAU          2.7900     1.6010    -1.3320 h1         1 DF3       0.065700
     59 HAUA         1.6610     0.2590    -1.4080 h1         1 DF3       0.065700
     60 HAV         -3.0580     0.8700    -1.1960 h1         1 DF3       0.077200
     61 HAVA        -2.9000     0.4420     0.5090 h1         1 DF3       0.077200
     62 HNAW         3.7650    -1.3670     0.1050 hn         1 DF3       0.319500
     63 HNAX        -4.6900    -0.8910    -0.3680 hn         1 DF3       0.316500
@<TRIPOS>BOND
     1     1    28 2   
     2     2    29 2   
     3     3    39 1   
     4     4    39 1   
     5     5    39 1   
     6     6     9 ar  
     7     6    10 ar  
     8     6    40 1   
     9     7     8 ar  
    10     7    13 ar  
    11     7    41 1   
    12     8    14 ar  
    13     8    42 1   
    14     9    31 ar  
    15     9    43 1   
    16    10    32 ar  
    17    10    44 1   
    18    11    12 ar  
    19    11    30 ar  
    20    11    45 1   
    21    12    33 ar  
    22    12    46 1   
    23    13    36 ar  
    24    13    47 1   
    25    14    37 ar  
    26    14    48 1   
    27    15    30 ar  
    28    15    34 ar  
    29    15    49 1   
    30    16    31 ar  
    31    16    32 ar  
    32    16    50 1   
    33    17    35 2   
    34    17    38 1   
    35    17    51 1   
    36    18    21 1   
    37    18    23 1   
    38    18    52 1   
    39    18    53 1   
    40    19    20 1   
    41    19    25 1   
    42    19    54 1   
    43    19    55 1   
    44    20    26 1   
    45    20    56 1   
    46    20    57 1   
    47    21    38 1   
    48    21    58 1   
    49    21    59 1   
    50    22    27 1   
    51    22    28 1   
    52    22    60 1   
    53    22    61 1   
    54    23    29 1   
    55    23    62 1   
    56    24    28 1   
    57    24    30 1   
    58    24    63 1   
    59    25    33 1   
    60    26    34 1   
    61    27    35 1   
    62    29    31 1   
    63    32    39 1   
    64    33    34 ar  
    65    35    36 1   
    66    36    37 ar  
    67    37    38 1   
@<TRIPOS>SUBSTRUCTURE
     1 DF3         1 TEMP              0 ****  ****    0 ROOT
