@<TRIPOS>MOLECULE
DF3
   63    67     1     0     0
SMALL
No Charge or Current Charge


@<TRIPOS>ATOM
      1 OAA         -5.6960     2.1770     0.4910 o          1 DF3      -0.558100
      2 OAB          5.3310     1.4150    -0.1660 o          1 DF3      -0.592100
      3 FAC         10.5960    -0.4920    -0.5930 f          1 DF3      -0.110667
      4 FAD          9.6750     0.1270    -2.4620 f          1 DF3      -0.110667
      5 FAE         10.4630    -1.8830    -2.2580 f          1 DF3      -0.110667
      6 CAF          6.9300    -3.1540    -0.3510 ca         1 DF3      -0.125000
      7 CAG          0.9240     6.1030     1.0090 ca         1 DF3      -0.140000
      8 CAH          2.1930     5.5300     0.7440 ca         1 DF3      -0.087000
      9 CAI          5.9290    -2.2110    -0.0700 ca         1 DF3      -0.062000
     10 CAJ          8.1770    -2.7440    -0.8450 ca         1 DF3      -0.038000
     11 CAK         -7.9170     0.1150     0.1750 ca         1 DF3      -0.127000
     12 CAL         -9.1780    -0.5090     0.1130 ca         1 DF3      -0.082000
     13 CAM         -0.2490     5.3260     0.8920 ca         1 DF3      -0.056000
     14 CAN          2.3040     4.1750     0.3600 ca         1 DF3      -0.129000
     15 CAO         -6.8560    -1.9510    -0.5470 ca         1 DF3      -0.170000
     16 CAP          7.4290    -0.4300    -0.7760 ca         1 DF3      -0.008000
     17 CAQ         -0.4330     1.7440    -0.0790 cc         1 DF3      -0.175100
     18 CAR          2.7710     0.6480     0.8300 c3         1 DF3       0.079000
     19 CAS        -10.6200    -3.7000    -1.0670 c6         1 DF3       0.117600
     20 CAT         -9.4230    -4.6030    -0.6970 c6         1 DF3       0.118600
     21 CAU          2.0640     1.1950    -0.4270 c3         1 DF3       0.057600
     22 CAV         -3.4440     1.3620     0.0780 c3         1 DF3      -0.082400
     23 NAW          3.9110    -0.2200     0.5060 ns         1 DF3      -0.505900
     24 NAX         -5.4380    -0.0370    -0.1270 ns         1 DF3      -0.141000
     25 OAY        -10.5260    -2.4430    -0.3610 os         1 DF3      -0.326100
     26 OAZ         -8.1830    -3.9100    -0.9620 os         1 DF3      -0.332100
     27 SBA         -2.8010     3.0570     0.4860 ss         1 DF3      -0.167600
     28 CBB         -4.9740     1.2370     0.1770 c          1 DF3       0.622100
     29 CBC          5.1220     0.2240     0.0160 c          1 DF3       0.612700
     30 CBD         -6.7440    -0.6010    -0.1610 ca         1 DF3      -0.019000
     31 CBE          6.1680    -0.8310    -0.2770 ca         1 DF3      -0.158600
     32 CBF          8.4350    -1.3760    -1.0690 ca         1 DF3      -0.205300
     33 CBG         -9.2810    -1.8500    -0.2840 ca         1 DF3       0.032100
     34 CBH         -8.1090    -2.5790    -0.6000 ca         1 DF3       0.086100
     35 CBI         -1.0450     2.9280     0.2980 cd         1 DF3      -0.041600
     36 CBJ         -0.0980     3.9880     0.5090 ca         1 DF3      -0.081800
     37 CBK          1.1230     3.4230     0.2500 ca         1 DF3      -0.037200
     38 NBL          0.9370     2.0840    -0.1020 na         1 DF3      -0.085700
     39 CBM          9.7950    -0.9080    -1.5990 c3         1 DF3       0.358300
     40 HAF          6.7380    -4.2120    -0.1830 ha         1 DF3       0.126000
     41 HAG          0.8530     7.1470     1.3040 ha         1 DF3       0.113000
     42 HAH          3.0900     6.1390     0.8380 ha         1 DF3       0.113000
     43 HAI          4.9770    -2.5710     0.3110 ha         1 DF3       0.113000
     44 HAJ          8.9380    -3.4950    -1.0480 ha         1 DF3       0.136000
     45 HAK         -7.8790     1.1550     0.4840 ha         1 DF3       0.154000
     46 HAL        -10.0750     0.0510     0.3650 ha         1 DF3       0.132000
     47 HAM         -1.2300     5.7490     1.0920 ha         1 DF3       0.122000
     48 HAN          3.2780     3.7360     0.1580 ha         1 DF3       0.132000
     49 HAO         -5.9660    -2.5220    -0.8010 ha         1 DF3       0.122000
     50 HAP          7.6300     0.6290    -0.9350 ha         1 DF3       0.153000
     51 HAQ         -0.8100     0.7570    -0.3170 h4         1 DF3       0.205000
     52 HAR          3.1260     1.4860     1.4450 h1         1 DF3       0.067200
     53 HARA         2.0510     0.0760     1.4290 h1         1 DF3       0.067200
     54 HAS        -10.6090    -3.5030    -2.1490 h1         1 DF3       0.067200
     55 HASA       -11.5710    -4.1900    -0.8150 h1         1 DF3       0.067200
     56 HAT         -9.4710    -4.8530     0.3730 h1         1 DF3       0.067700
     57 HATA        -9.4490    -5.5380    -1.2720 h1         1 DF3       0.067700
     58 HAU          2.7800     1.7460    -1.0490 h1         1 DF3       0.065700
     59 HAUA         1.6870     0.3550    -1.0220 h1         1 DF3       0.065700
     60 HAV         -3.1510     1.1010    -0.9460 h1         1 DF3       0.077200
     61 HAVA        -3.0020     0.6320     0.7670 h1         1 DF3       0.077200
     62 HNAW         3.8110    -1.2180     0.6400 hn         1 DF3       0.319500
     63 HNAX        -4.7070    -0.6930    -0.3710 hn         1 DF3       0.150000
@<TRIPOS>BOND
     1     1    28 2   
     2     2    29 2   
     3     3    39 1   
     4     4    39 1   
     5     5    39 1   
     6     6     9 ar  
     7     6    10 ar  
     8     6    40 1   
     9     7     8 ar  
    10     7    13 ar  
    11     7    41 1   
    12     8    14 ar  
    13     8    42 1   
    14     9    31 ar  
    15     9    43 1   
    16    10    32 ar  
    17    10    44 1   
    18    11    12 ar  
    19    11    30 ar  
    20    11    45 1   
    21    12    33 ar  
    22    12    46 1   
    23    13    36 ar  
    24    13    47 1   
    25    14    37 ar  
    26    14    48 1   
    27    15    30 ar  
    28    15    34 ar  
    29    15    49 1   
    30    16    31 ar  
    31    16    32 ar  
    32    16    50 1   
    33    17    35 2   
    34    17    38 1   
    35    17    51 1   
    36    18    21 1   
    37    18    23 1   
    38    18    52 1   
    39    18    53 1   
    40    19    20 1   
    41    19    25 1   
    42    19    54 1   
    43    19    55 1   
    44    20    26 1   
    45    20    56 1   
    46    20    57 1   
    47    21    38 1   
    48    21    58 1   
    49    21    59 1   
    50    22    27 1   
    51    22    28 1   
    52    22    60 1   
    53    22    61 1   
    54    23    29 1   
    55    23    62 1   
    56    24    28 1   
    57    24    30 1   
    58    24    63 1   
    59    25    33 1   
    60    26    34 1   
    61    27    35 1   
    62    29    31 1   
    63    32    39 1   
    64    33    34 ar  
    65    35    36 1   
    66    36    37 ar  
    67    37    38 1   
@<TRIPOS>SUBSTRUCTURE
     1 DF3         1 TEMP              0 ****  ****    0 ROOT
