@<TRIPOS>MOLECULE
DF4
   37    37     1     0     0
SMALL
abcg2


@<TRIPOS>ATOM
      1 C7          55.9860   127.4740    -0.0250 c3         1 DF4       0.186300
      2 C5          56.2450   127.1480     2.5060 c6         1 DF4       0.072700
      3 C2          54.4780   129.3610     2.6410 c2         1 DF4       0.198900
      4 C1          53.4680   130.4740     2.6980 c          1 DF4       0.703000
      5 C3          55.1200   128.8460     3.9100 c6         1 DF4       0.129500
      6 C4          55.5190   127.3770     3.8290 c6         1 DF4       0.131300
      7 C6          55.3060   127.4750     1.3410 c6         1 DF4       0.103300
      8 O1A         53.6240   131.6480     2.4130 o          1 DF4      -0.562000
      9 O1B         52.4930   129.7850     3.0990 o          1 DF4      -0.562000
     10 O4          56.3810   127.0330     4.8890 oh         1 DF4      -0.628000
     11 F1          56.2700   129.6400     4.0320 f          1 DF4      -0.213000
     12 O6          54.6970   128.8260     1.5140 os         1 DF4      -0.198100
     13 C8          55.0560   127.9510    -1.1370 c3         1 DF4       0.167300
     14 C9          55.6670   127.7230    -2.5070 c3         1 DF4       0.126600
     15 O9          54.7010   128.1750    -3.4620 oh         1 DF4      -0.736000
     16 O8          53.8340   127.2280    -1.0140 oh         1 DF4      -0.683000
     17 O7          57.1460   128.2820    -0.0330 oh         1 DF4      -0.720000
     18 N5          56.7210   125.7900     2.3920 ns         1 DF4      -0.495900
     19 C10         57.9060   125.4780     1.8270 c          1 DF4       0.609100
     20 O10         58.6210   126.3290     1.2860 o          1 DF4      -0.624100
     21 C11         58.3130   124.0310     1.8830 c3         1 DF4      -0.171100
     22 H1          56.2370   126.4270    -0.2240 h1         1 DF4       0.052700
     23 H2          57.1130   127.8060     2.4650 h1         1 DF4       0.124700
     24 H4          54.4810   129.0480     4.7670 h1         1 DF4       0.118700
     25 H5          54.5990   126.7820     3.8520 h1         1 DF4       0.056700
     26 H6          54.4490   126.8030     1.3330 h1         1 DF4       0.103700
     27 H8          55.8570   126.8760     5.6860 ho         1 DF4       0.462000
     28 H9          54.8710   129.0240    -1.0120 h1         1 DF4       0.084700
     29 H10         55.8730   126.6560    -2.6430 h1         1 DF4       0.044200
     30 H11         56.6010   128.2830    -2.6000 h1         1 DF4       0.044200
     31 H12         54.8970   127.7730    -4.3160 ho         1 DF4       0.512000
     32 H13         53.3510   127.3620    -1.8410 ho         1 DF4       0.475000
     33 H14         57.8530   127.7580     0.3930 ho         1 DF4       0.547000
     34 H15         56.1730   125.0520     2.8080 hn         1 DF4       0.326500
     35 H16         59.2750   123.9630     2.3920 hc         1 DF4       0.070700
     36 H17         57.5860   123.4060     2.3980 hc         1 DF4       0.070700
     37 H18         58.4470   123.6680     0.8640 hc         1 DF4       0.070700
@<TRIPOS>BOND
     1     1     7 1   
     2     1    13 1   
     3     1    17 1   
     4     1    22 1   
     5     2     6 1   
     6     2     7 1   
     7     2    18 1   
     8     2    23 1   
     9     3     4 2   
    10     3     5 1   
    11     3    12 1   
    12     4     8 1   
    13     4     9 1   
    14     5     6 1   
    15     5    11 1   
    16     5    24 1   
    17     6    10 1   
    18     6    25 1   
    19     7    12 1   
    20     7    26 1   
    21    10    27 1   
    22    13    14 1   
    23    13    16 1   
    24    13    28 1   
    25    14    15 1   
    26    14    29 1   
    27    14    30 1   
    28    15    31 1   
    29    16    32 1   
    30    17    33 1   
    31    18    19 1   
    32    18    34 1   
    33    19    20 2   
    34    19    21 1   
    35    21    35 1   
    36    21    36 1   
    37    21    37 1   
@<TRIPOS>SUBSTRUCTURE
     1 DF4         1 TEMP              0 ****  ****    0 ROOT
