@<TRIPOS>MOLECULE
DF4
   37    37     1     0     0
SMALL
No Charge or Current Charge


@<TRIPOS>ATOM
      1 C7          55.9680   127.4740    -0.0510 c3         1 DF4       0.186300
      2 C5          56.2980   127.1900     2.5480 c6         1 DF4       0.072700
      3 C2          54.4370   129.4200     2.7770 c2         1 DF4       0.198900
      4 C1          53.4550   130.5010     2.8740 c          1 DF4       0.703000
      5 C3          55.0530   128.8250     4.0500 c6         1 DF4       0.129500
      6 C4          55.4960   127.3410     3.8690 c6         1 DF4       0.131300
      7 C6          55.3490   127.6130     1.3850 c6         1 DF4       0.103300
      8 O1A         53.0330   130.9870     1.8310 o          1 DF4      -0.562000
      9 O1B         53.0890   130.8640     3.9860 o          1 DF4      -0.562000
     10 O4          56.2690   126.8670     4.9910 oh         1 DF4      -0.628000
     11 F1          56.1830   129.5800     4.4410 f          1 DF4      -0.213000
     12 O6          54.9350   128.9890     1.5590 os         1 DF4      -0.198100
     13 C8          54.9980   127.9140    -1.1940 c3         1 DF4       0.167300
     14 C9          55.5870   127.7050    -2.6150 c3         1 DF4       0.126600
     15 O9          54.5570   127.9180    -3.6060 oh         1 DF4      -0.736000
     16 O8          53.7670   127.1730    -1.1340 oh         1 DF4      -0.683000
     17 O7          57.2150   128.1930    -0.1610 oh         1 DF4      -0.720000
     18 N5          56.8420   125.8200     2.3970 ns         1 DF4      -0.495900
     19 C10         57.9910   125.4900     1.7180 c          1 DF4       0.609100
     20 O10         58.6290   126.3230     1.0880 o          1 DF4      -0.624100
     21 C11         58.3960   124.0270     1.7940 c3         1 DF4      -0.171100
     22 H1          56.1590   126.4040    -0.2090 h1         1 DF4       0.052700
     23 H2          57.1470   127.8920     2.5830 h1         1 DF4       0.124700
     24 H4          54.3310   128.8800     4.8760 h1         1 DF4       0.118700
     25 H5          54.5850   126.7290     3.7800 h1         1 DF4       0.056700
     26 H6          54.4510   126.9790     1.4170 h1         1 DF4       0.103700
     27 H8          55.6860   126.8770     5.7840 ho         1 DF4       0.462000
     28 H9          54.7940   128.9880    -1.0750 h1         1 DF4       0.084700
     29 H10         55.9910   126.6860    -2.6950 h1         1 DF4       0.044200
     30 H11         56.4190   128.4060    -2.7660 h1         1 DF4       0.044200
     31 H12         54.9900   127.8720    -4.4930 ho         1 DF4       0.512000
     32 H13         53.4480   127.2030    -2.0700 ho         1 DF4       0.475000
     33 H14         57.9000   127.5970     0.2630 ho         1 DF4       0.547000
     34 H15         56.4060   125.0720     2.9250 hn         1 DF4       0.326500
     35 H16         58.4930   123.7400     2.8470 hc         1 DF4       0.070700
     36 H17         57.5570   123.4070     1.4580 hc         1 DF4       0.070700
     37 H18         59.3100   123.8140     1.2290 hc         1 DF4       0.070700
@<TRIPOS>BOND
     1     1     7 1   
     2     1    13 1   
     3     1    17 1   
     4     1    22 1   
     5     2     6 1   
     6     2     7 1   
     7     2    18 1   
     8     2    23 1   
     9     3     4 2   
    10     3     5 1   
    11     3    12 1   
    12     4     8 1   
    13     4     9 1   
    14     5     6 1   
    15     5    11 1   
    16     5    24 1   
    17     6    10 1   
    18     6    25 1   
    19     7    12 1   
    20     7    26 1   
    21    10    27 1   
    22    13    14 1   
    23    13    16 1   
    24    13    28 1   
    25    14    15 1   
    26    14    29 1   
    27    14    30 1   
    28    15    31 1   
    29    16    32 1   
    30    17    33 1   
    31    18    19 1   
    32    18    34 1   
    33    19    20 2   
    34    19    21 1   
    35    21    35 1   
    36    21    36 1   
    37    21    37 1   
@<TRIPOS>SUBSTRUCTURE
     1 DF4         1 TEMP              0 ****  ****    0 ROOT
