@<TRIPOS>MOLECULE
DF5
   39    41     1     0     0
SMALL
No Charge or Current Charge


@<TRIPOS>ATOM
      1 O2          -5.5790    -0.6850    -0.5380 o          1 DF5      -0.518000
      2 S           -4.4280    -1.1760     0.2170 sy         1 DF5       1.131600
      3 O1          -4.5240    -1.5640     1.6220 o          1 DF5      -0.518000
      4 N1          -4.0430    -2.5710    -0.5390 n8         1 DF5      -1.029100
      5 C2          -2.9840    -0.1410    -0.0670 ca         1 DF5      -0.208500
      6 C1          -2.9170     0.6860    -1.2050 ca         1 DF5      -0.013500
      7 C3          -1.9140    -0.1500     0.8490 ca         1 DF5      -0.013500
      8 C4          -0.7850     0.6590     0.6280 ca         1 DF5      -0.072500
      9 C5          -0.7010     1.4810    -0.5220 ca         1 DF5      -0.155600
     10 C           -1.7880     1.4940    -1.4250 ca         1 DF5      -0.072500
     11 C6           0.5000     2.3750    -0.7840 c          1 DF5       0.571500
     12 O            0.3630     3.4110    -1.4260 o          1 DF5      -0.408100
     13 N            1.7220     2.0880    -0.1240 n          1 DF5       0.044500
     14 C10          2.3370     0.7650    -0.0620 ca         1 DF5      -0.063000
     15 C15          1.8170    -0.3360    -0.7870 ca         1 DF5      -0.090000
     16 C14          2.4070    -1.6080    -0.6960 ca         1 DF5      -0.110000
     17 C13          3.5460    -1.8050     0.1090 ca         1 DF5       0.183100
     18 O3           4.1690    -3.0310     0.2390 os         1 DF5      -0.313100
     19 C16          3.6880    -4.2140    -0.4260 c3         1 DF5       0.137900
     20 C12          4.0960    -0.7150     0.7960 ca         1 DF5      -0.124000
     21 C11          3.5150     0.5650     0.7040 ca         1 DF5      -0.039000
     22 C9           4.1370     1.6410     1.3630 ca         1 DF5       0.043000
     23 C8           3.6230     2.9380     1.2360 ca         1 DF5      -0.164000
     24 C7           2.4560     3.1620     0.4920 ca         1 DF5       0.057700
     25 H1          -4.8650    -2.6920    -1.1270 hn         1 DF5       0.492000
     26 H2          -4.2230    -3.2380     0.2090 hn         1 DF5       0.492000
     27 H3          -3.7370     0.7080    -1.9230 ha         1 DF5       0.160500
     28 H4          -1.9520    -0.7790     1.7380 ha         1 DF5       0.160500
     29 H5           0.0140     0.6430     1.3650 ha         1 DF5       0.135000
     30 H6          -1.7590     2.1260    -2.3120 ha         1 DF5       0.135000
     31 H7           0.9560    -0.2280    -1.4410 ha         1 DF5       0.146000
     32 H8           1.9700    -2.4270    -1.2600 ha         1 DF5       0.150000
     33 H9           2.6630    -4.4510    -0.1110 h1         1 DF5       0.062033
     34 H10          3.7010    -4.0840    -1.5150 h1         1 DF5       0.062033
     35 H11          4.3240    -5.0730    -0.1810 h1         1 DF5       0.062033
     36 H12          4.9910    -0.8710     1.3930 ha         1 DF5       0.162000
     37 H13          5.0420     1.4790     1.9450 ha         1 DF5       0.163000
     38 H14          4.1290     3.7720     1.7170 ha         1 DF5       0.175000
     39 H15          2.0400     4.1660     0.3870 h4         1 DF5       0.185000
@<TRIPOS>BOND
     1     1     2 2   
     2     2     3 2   
     3     2     4 1   
     4     2     5 1   
     5     4    25 1   
     6     4    26 1   
     7     5     6 ar  
     8     5     7 ar  
     9     6    10 ar  
    10     6    27 1   
    11     7     8 ar  
    12     7    28 1   
    13     8     9 ar  
    14     8    29 1   
    15     9    10 ar  
    16     9    11 1   
    17    10    30 1   
    18    11    12 2   
    19    11    13 1   
    20    13    14 1   
    21    13    24 2   
    22    14    15 ar  
    23    14    21 ar  
    24    15    16 ar  
    25    15    31 1   
    26    16    17 ar  
    27    16    32 1   
    28    17    18 1   
    29    17    20 ar  
    30    18    19 1   
    31    19    33 1   
    32    19    34 1   
    33    19    35 1   
    34    20    21 ar  
    35    20    36 1   
    36    21    22 ar  
    37    22    23 ar  
    38    22    37 1   
    39    23    24 ar  
    40    23    38 1   
    41    24    39 1   
@<TRIPOS>SUBSTRUCTURE
     1 DF5         1 TEMP              0 ****  ****    0 ROOT
