@<TRIPOS>MOLECULE
DF5
   39    41     1     0     0
SMALL
bcc


@<TRIPOS>ATOM
      1 O2          -5.5510    -0.3480    -0.5810 o          1 DF5      -0.588800
      2 S           -4.5510    -0.7800     0.3820 sy         1 DF5       1.273200
      3 O1          -4.8000    -0.5980     1.8020 o          1 DF5      -0.588800
      4 N1          -4.1160    -2.3510     0.1820 n8         1 DF5      -0.918700
      5 C2          -3.0300     0.0520    -0.0320 ca         1 DF5      -0.208500
      6 C1          -2.8910     0.6520    -1.2740 ca         1 DF5      -0.031500
      7 C3          -2.0180     0.0900     0.9160 ca         1 DF5      -0.031500
      8 C4          -0.8330     0.7330     0.6080 ca         1 DF5      -0.090500
      9 C5          -0.6750     1.3380    -0.6390 ca         1 DF5      -0.155600
     10 C           -1.7070     1.3020    -1.5750 ca         1 DF5      -0.090500
     11 C6           0.5470     2.0700    -0.9980 c          1 DF5       0.571500
     12 O            0.6740     2.8450    -1.8920 o          1 DF5      -0.408100
     13 N            1.7100     1.8360    -0.1200 n          1 DF5      -0.006200
     14 C10          2.3390     0.6130    -0.1080 ca         1 DF5      -0.012300
     15 C15          1.9580    -0.4330    -0.9570 ca         1 DF5      -0.108000
     16 C14          2.6190    -1.6310    -0.8980 ca         1 DF5      -0.128000
     17 C13          3.6890    -1.8380     0.0030 ca         1 DF5       0.183100
     18 O3           4.3580    -2.9870     0.1020 os         1 DF5      -0.289900
     19 C16          4.0240    -4.0660    -0.7580 c3         1 DF5       0.114700
     20 C12          4.0840    -0.8050     0.8260 ca         1 DF5      -0.142000
     21 C11          3.4230     0.4300     0.7820 ca         1 DF5      -0.039000
     22 C9           3.8200     1.5140     1.5920 ca         1 DF5       0.025000
     23 C8           3.1750     2.7190     1.5090 ca         1 DF5      -0.182000
     24 C7           2.1090     2.8550     0.6310 ca         1 DF5       0.039700
     25 H1          -4.1880    -2.6770    -0.7750 hn         1 DF5       0.436800
     26 H2          -4.5960    -2.9730     0.8250 hn         1 DF5       0.436800
     27 H3          -3.6870     0.6220    -2.0040 ha         1 DF5       0.178500
     28 H4          -2.1390    -0.3690     1.8870 ha         1 DF5       0.178500
     29 H5          -0.0550     0.7650     1.3590 ha         1 DF5       0.153000
     30 H6          -1.5890     1.7720    -2.5420 ha         1 DF5       0.153000
     31 H7           1.1580    -0.3230    -1.6760 ha         1 DF5       0.164000
     32 H8           2.3010    -2.4170    -1.5680 ha         1 DF5       0.168000
     33 H9           2.9990    -4.4080    -0.6020 h1         1 DF5       0.062033
     34 H10          4.1620    -3.8020    -1.8090 h1         1 DF5       0.062033
     35 H11          4.7050    -4.8740    -0.5060 h1         1 DF5       0.062033
     36 H12          4.9130    -0.9350     1.5090 ha         1 DF5       0.180000
     37 H13          4.6470     1.3850     2.2780 ha         1 DF5       0.181000
     38 H14          3.4640     3.5640     2.1150 ha         1 DF5       0.193000
     39 H15          1.5550     3.7790     0.5440 h4         1 DF5       0.203000
@<TRIPOS>BOND
     1     1     2 2   
     2     2     3 2   
     3     2     4 1   
     4     2     5 1   
     5     4    25 1   
     6     4    26 1   
     7     5     6 ar  
     8     5     7 ar  
     9     6    10 ar  
    10     6    27 1   
    11     7     8 ar  
    12     7    28 1   
    13     8     9 ar  
    14     8    29 1   
    15     9    10 ar  
    16     9    11 1   
    17    10    30 1   
    18    11    12 2   
    19    11    13 1   
    20    13    14 1   
    21    13    24 2   
    22    14    15 ar  
    23    14    21 ar  
    24    15    16 ar  
    25    15    31 1   
    26    16    17 ar  
    27    16    32 1   
    28    17    18 1   
    29    17    20 ar  
    30    18    19 1   
    31    19    33 1   
    32    19    34 1   
    33    19    35 1   
    34    20    21 ar  
    35    20    36 1   
    36    21    22 ar  
    37    22    23 ar  
    38    22    37 1   
    39    23    24 ar  
    40    23    38 1   
    41    24    39 1   
@<TRIPOS>SUBSTRUCTURE
     1 DF5         1 TEMP              0 ****  ****    0 ROOT
