@<TRIPOS>MOLECULE
DF6
   57    60     1     0     0
SMALL
bcc


@<TRIPOS>ATOM
      1 C4           7.3710     1.2010    -0.3290 ca         1 DF6      -0.268300
      2 C5           5.9740     1.4280    -0.3660 ca         1 DF6       0.435600
      3 C7           4.2480     2.8870    -0.6280 ca         1 DF6       0.442200
      4 C8           3.2800     1.8910    -0.4240 ca         1 DF6      -0.349300
      5 C13         -0.3630     0.3430     1.4560 ca         1 DF6      -0.117500
      6 C21         -7.1310     0.7200     0.5720 c3         1 DF6      -0.114100
      7 C22         -8.5040     0.2900     0.1530 ca         1 DF6      -0.082300
      8 C24        -10.2650     0.2400    -1.5010 ca         1 DF6      -0.125500
      9 C26        -10.5590    -0.9000     0.5910 ca         1 DF6      -0.125500
     10 C28         -0.6330    -0.2590    -0.8580 ca         1 DF6      -0.117500
     11 O20         -6.3330    -1.4680    -0.0180 o          1 DF6      -0.468100
     12 C19         -6.0760    -0.3250     0.2530 c          1 DF6       0.674100
     13 C27         -9.2960    -0.4890     0.9920 ca         1 DF6      -0.107500
     14 C25        -11.0480    -0.5370    -0.6570 ca         1 DF6      -0.117000
     15 C23         -9.0010     0.6500    -1.0960 ca         1 DF6      -0.107500
     16 N18         -4.7970     0.1970     0.3430 ns         1 DF6      -0.582500
     17 C16         -3.5800    -0.4220     0.1690 cs         1 DF6       0.587400
     18 S17         -3.3700    -1.9770    -0.3590 s          1 DF6      -0.505400
     19 C14         -1.1860     0.1330     0.3560 ca         1 DF6       0.055600
     20 C12          1.0080     0.1680     1.3490 ca         1 DF6      -0.119500
     21 C29          0.7350    -0.4460    -0.9670 ca         1 DF6      -0.119500
     22 C11          1.5450    -0.2310     0.1370 ca         1 DF6       0.092100
     23 C9           3.7140     0.6100    -0.1820 ca         1 DF6       0.187100
     24 N6           5.5400     2.6870    -0.6030 nb         1 DF6      -0.683000
     25 C30          5.1020     0.3400    -0.1490 ca         1 DF6      -0.157300
     26 C31          5.6330    -0.9520     0.0930 ca         1 DF6      -0.174000
     27 C32          6.9850    -1.1510     0.1230 ca         1 DF6       0.118100
     28 O33          7.5940    -2.3230     0.3450 os         1 DF6      -0.295900
     29 C34          6.7850    -3.4590     0.5790 c3         1 DF6       0.119700
     30 C3           7.8760    -0.0480    -0.0910 ca         1 DF6       0.148100
     31 O2           9.1750    -0.3590    -0.0300 os         1 DF6      -0.292900
     32 C1          10.1180     0.6860    -0.1830 c3         1 DF6       0.119700
     33 H1           8.0170     2.0530    -0.4910 ha         1 DF6       0.157000
     34 H2           3.9140     3.9010    -0.8210 h4         1 DF6       0.015100
     35 H3           2.2320     2.1510    -0.4650 ha         1 DF6       0.149000
     36 H4          -0.7910     0.6470     2.4020 ha         1 DF6       0.149000
     37 H5          -6.8640     1.6690     0.1020 hc         1 DF6       0.064700
     38 H6          -7.0920     0.8970     1.6520 hc         1 DF6       0.064700
     39 H7         -10.6380     0.5320    -2.4740 ha         1 DF6       0.133500
     40 H8         -11.1640    -1.5040     1.2550 ha         1 DF6       0.133500
     41 H9          -1.2640    -0.4070    -1.7220 ha         1 DF6       0.149000
     42 H10         -8.9250    -0.7720     1.9700 ha         1 DF6       0.129000
     43 H11        -12.0340    -0.8560    -0.9690 ha         1 DF6       0.133000
     44 H12         -8.3980     1.2600    -1.7570 ha         1 DF6       0.129000
     45 H13         -4.7630     1.1820     0.5700 hn         1 DF6       0.300500
     46 H14         -2.7860     1.2680     0.9600 hn         1 DF6       0.307500
     47 H15          1.6480     0.3330     2.2060 ha         1 DF6       0.154500
     48 H16          1.1680    -0.7490    -1.9110 ha         1 DF6       0.154500
     49 H17          4.9550    -1.7780     0.2540 ha         1 DF6       0.155000
     50 H18          7.4640    -4.2920     0.7470 h1         1 DF6       0.043367
     51 H19          6.1540    -3.3330     1.4630 h1         1 DF6       0.043367
     52 H20          6.1490    -3.6890    -0.2790 h1         1 DF6       0.043367
     53 H21         10.0580     1.1460    -1.1720 h1         1 DF6       0.044367
     54 H22          9.9860     1.4600     0.5770 h1         1 DF6       0.044367
     55 H23         11.1000     0.2340    -0.0640 h1         1 DF6       0.044367
     56 O10          2.9000    -0.4440     0.0280 os         1 DF6      -0.246200
     57 N15         -2.5630     0.4030     0.4870 ns         1 DF6      -0.444100
@<TRIPOS>BOND
     1     1     2 ar  
     2     1    30 ar  
     3     1    33 1   
     4     2    24 ar  
     5     2    25 ar  
     6     3     4 ar  
     7     3    24 ar  
     8     3    34 1   
     9     4    23 ar  
    10     4    35 1   
    11     5    19 ar  
    12     5    20 ar  
    13     5    36 1   
    14     6     7 1   
    15     6    12 1   
    16     6    37 1   
    17     6    38 1   
    18     7    13 ar  
    19     7    15 ar  
    20     8    14 ar  
    21     8    15 ar  
    22     8    39 1   
    23     9    13 ar  
    24     9    14 ar  
    25     9    40 1   
    26    10    19 ar  
    27    10    21 ar  
    28    10    41 1   
    29    11    12 2   
    30    12    16 1   
    31    13    42 1   
    32    14    43 1   
    33    15    44 1   
    34    16    17 1   
    35    16    45 1   
    36    17    18 2   
    37    17    57 1   
    38    19    57 1   
    39    20    22 ar  
    40    20    47 1   
    41    21    22 ar  
    42    21    48 1   
    43    22    56 1   
    44    23    25 ar  
    45    23    56 1   
    46    25    26 ar  
    47    26    27 ar  
    48    26    49 1   
    49    27    28 1   
    50    27    30 ar  
    51    28    29 1   
    52    29    50 1   
    53    29    51 1   
    54    29    52 1   
    55    30    31 1   
    56    31    32 1   
    57    32    53 1   
    58    32    54 1   
    59    32    55 1   
    60    46    57 1   
@<TRIPOS>SUBSTRUCTURE
     1 DF6         1 TEMP              0 ****  ****    0 ROOT
