@<TRIPOS>MOLECULE
DF6
   57    60     1     0     0
SMALL
No Charge or Current Charge


@<TRIPOS>ATOM
      1 C4           6.9230     1.5040    -0.3230 ca         1 DF6      -0.185000
      2 C5           5.5630     1.6510    -0.6350 ca         1 DF6       0.305000
      3 C7           3.7790     3.0270    -1.2180 ca         1 DF6       0.376900
      4 C8           2.8900     1.9490    -1.2560 ca         1 DF6      -0.266000
      5 C13         -0.3800     0.3260     1.1740 ca         1 DF6      -0.099500
      6 C21         -7.2150    -0.0910     1.9670 c3         1 DF6      -0.114100
      7 C22         -7.9330     0.2010     0.6530 ca         1 DF6      -0.082300
      8 C24         -8.1080     1.4620    -1.4300 ca         1 DF6      -0.107500
      9 C26         -9.7380    -0.2690    -0.9220 ca         1 DF6      -0.107500
     10 C28         -1.0780    -1.1220    -0.6480 ca         1 DF6      -0.099500
     11 O20         -6.4310    -2.3540     1.6970 o          1 DF6      -0.468100
     12 C19         -6.1420    -1.1690     1.7700 c          1 DF6       0.607100
     13 C27         -9.0800    -0.5330     0.2920 ca         1 DF6      -0.089500
     14 C25         -9.2520     0.7290    -1.7840 ca         1 DF6      -0.099000
     15 C23         -7.4490     1.1990    -0.2160 ca         1 DF6      -0.089500
     16 N18         -4.8650    -0.6770     1.6060 ns         1 DF6      -0.448500
     17 C16         -3.7540    -1.2440     1.0460 cs         1 DF6       0.453400
     18 S17         -3.6520    -2.8190     0.4870 s          1 DF6      -0.505400
     19 C14         -1.3910    -0.4070     0.5270 ca         1 DF6       0.055600
     20 C12          0.9350     0.3270     0.6740 ca         1 DF6      -0.101500
     21 C29          0.2360    -1.1210    -1.1510 ca         1 DF6      -0.101500
     22 C11          1.2420    -0.3930    -0.4960 ca         1 DF6       0.092100
     23 C9           3.3680     0.6660    -0.9590 ca         1 DF6       0.187100
     24 N6           5.0860     2.8850    -0.9130 nb         1 DF6      -0.683000
     25 C30          4.7330     0.5030    -0.6500 ca         1 DF6      -0.092000
     26 C31          5.2700    -0.7700    -0.3550 ca         1 DF6      -0.156000
     27 C32          6.6400    -0.9080    -0.0430 ca         1 DF6       0.118100
     28 O33          7.2020    -2.1400     0.2530 os         1 DF6      -0.319100
     29 C34          6.4370    -3.3590     0.2630 c3         1 DF6       0.142900
     30 C3           7.4700     0.2370    -0.0270 ca         1 DF6       0.148100
     31 O2           8.8110     0.0760     0.2830 os         1 DF6      -0.316100
     32 C1           9.7350     1.1780     0.3240 c3         1 DF6       0.142900
     33 H1           7.5410     2.3950    -0.3170 ha         1 DF6       0.139000
     34 H2           3.4380     4.0370    -1.4410 h4         1 DF6       0.015100
     35 H3           1.8500     2.1150    -1.5170 ha         1 DF6       0.131000
     36 H4          -0.6070     0.8880     2.0770 ha         1 DF6       0.131000
     37 H5          -6.7540     0.8330     2.3350 hc         1 DF6       0.064700
     38 H6          -7.9390    -0.4500     2.7080 hc         1 DF6       0.064700
     39 H7          -7.7300     2.2350    -2.0960 ha         1 DF6       0.115500
     40 H8         -10.6240    -0.8390    -1.1950 ha         1 DF6       0.115500
     41 H9          -1.8460    -1.6630    -1.1920 ha         1 DF6       0.131000
     42 H10         -9.4620    -1.3100     0.9510 ha         1 DF6       0.111000
     43 H11         -9.7610     0.9320    -2.7230 ha         1 DF6       0.115000
     44 H12         -6.5630     1.7730     0.0470 ha         1 DF6       0.111000
     45 H13         -4.7860     0.3070     1.8110 hn         1 DF6       0.300500
     46 H14         -2.8970     0.5100     1.5390 hn         1 DF6       0.307500
     47 H15          1.7090     0.8830     1.1980 ha         1 DF6       0.136500
     48 H16          0.4730    -1.6760    -2.0550 ha         1 DF6       0.136500
     49 H17          4.6170    -1.6370    -0.3700 ha         1 DF6       0.137000
     50 H18          7.0820    -4.2080     0.5210 h1         1 DF6       0.043367
     51 H19          5.6300    -3.3070     1.0050 h1         1 DF6       0.043367
     52 H20          5.9990    -3.5530    -0.7240 h1         1 DF6       0.043367
     53 H21          9.7980     1.6720    -0.6540 h1         1 DF6       0.044367
     54 H22          9.4280     1.9170     1.0750 h1         1 DF6       0.044367
     55 H23         10.7380     0.8220     0.5890 h1         1 DF6       0.044367
     56 O10          2.5220    -0.4210    -1.0030 os         1 DF6      -0.246200
     57 N15         -2.7030    -0.3610     1.0610 ns         1 DF6      -0.377100
@<TRIPOS>BOND
     1     1     2 ar  
     2     1    30 ar  
     3     1    33 1   
     4     2    24 ar  
     5     2    25 ar  
     6     3     4 ar  
     7     3    24 ar  
     8     3    34 1   
     9     4    23 ar  
    10     4    35 1   
    11     5    19 ar  
    12     5    20 ar  
    13     5    36 1   
    14     6     7 1   
    15     6    12 1   
    16     6    37 1   
    17     6    38 1   
    18     7    13 ar  
    19     7    15 ar  
    20     8    14 ar  
    21     8    15 ar  
    22     8    39 1   
    23     9    13 ar  
    24     9    14 ar  
    25     9    40 1   
    26    10    19 ar  
    27    10    21 ar  
    28    10    41 1   
    29    11    12 2   
    30    12    16 1   
    31    13    42 1   
    32    14    43 1   
    33    15    44 1   
    34    16    17 1   
    35    16    45 1   
    36    17    18 2   
    37    17    57 1   
    38    19    57 1   
    39    20    22 ar  
    40    20    47 1   
    41    21    22 ar  
    42    21    48 1   
    43    22    56 1   
    44    23    25 ar  
    45    23    56 1   
    46    25    26 ar  
    47    26    27 ar  
    48    26    49 1   
    49    27    28 1   
    50    27    30 ar  
    51    28    29 1   
    52    29    50 1   
    53    29    51 1   
    54    29    52 1   
    55    30    31 1   
    56    31    32 1   
    57    32    53 1   
    58    32    54 1   
    59    32    55 1   
    60    46    57 1   
@<TRIPOS>SUBSTRUCTURE
     1 DF6         1 TEMP              0 ****  ****    0 ROOT
