@<TRIPOS>MOLECULE
DF8
   36    38     1     0     0
SMALL
abcg2


@<TRIPOS>ATOM
      1 O3           0.9090    -2.1130    -1.6390 oh         1 DF8      -0.667000
      2 C4          -1.5870    -0.5700     0.3630 ca         1 DF8       0.140500
      3 C5           0.8870    -0.7720     0.3370 c5         1 DF8       0.316300
      4 C6           3.1470    -0.2550     0.5400 c5         1 DF8       0.131300
      5 N1           0.5190     2.1360    -0.3100 nu         1 DF8      -0.675200
      6 C7           3.6930     1.0440    -0.0280 c3         1 DF8       0.139600
      7 C8           2.9990    -1.3250    -0.5450 c5         1 DF8       0.100300
      8 N2          -1.7990     1.6100    -0.2520 nc         1 DF8      -0.579100
      9 C9           1.5620    -1.0620    -1.0030 c5         1 DF8       0.131300
     10 N3          -4.7980     1.0130    -0.1900 nv         1 DF8      -1.051900
     11 N4          -4.1720    -1.1290     0.4230 nb         1 DF8      -0.288000
     12 N            0.2190     3.4420    -0.6840 n8         1 DF8      -0.703000
     13 C           -0.5390     1.3040    -0.1170 cd         1 DF8       0.637700
     14 O            1.8370    -0.0720     1.0920 os         1 DF8      -0.441000
     15 C1          -2.4680     0.4450     0.0360 ca         1 DF8      -0.071600
     16 C2          -3.8280     0.1180     0.0750 ca         1 DF8       0.421900
     17 C3          -3.2160    -2.0020     0.7190 ca         1 DF8       0.167900
     18 N5          -1.9050    -1.8100     0.7130 nb         1 DF8      -0.206000
     19 N6          -0.3360    -0.0150     0.2540 na         1 DF8      -0.316300
     20 O1           3.5080     2.0640     0.9240 oh         1 DF8      -0.708000
     21 O2           3.0560    -2.6280    -0.0350 oh         1 DF8      -0.682000
     22 H1           1.2270    -2.1690    -2.5450 ho         1 DF8       0.510000
     23 H2           0.6100    -1.7170     0.8180 h2         1 DF8       0.128700
     24 H3           3.8030    -0.5950     1.3470 h1         1 DF8       0.083700
     25 H4           1.2960     2.0140     0.3300 hn         1 DF8       0.485000
     26 H5           4.7530     0.8830    -0.2600 h1         1 DF8       0.027700
     27 H6           3.1970     1.2900    -0.9770 h1         1 DF8       0.027700
     28 H7           3.7250    -1.1730    -1.3550 h1         1 DF8       0.048700
     29 H8           1.5550    -0.1520    -1.6160 h1         1 DF8       0.056700
     30 H9          -4.5580     1.8700    -0.6580 hn         1 DF8       0.492500
     31 H10         -5.7340     0.6730    -0.3340 hn         1 DF8       0.492500
     32 H11          0.1770     4.0410     0.1320 hn         1 DF8       0.396500
     33 H12          0.9720     3.7740    -1.2700 hn         1 DF8       0.396500
     34 H13         -3.5530    -2.9940     0.9960 h5         1 DF8       0.046100
     35 H14          3.8880     2.8770     0.5730 ho         1 DF8       0.505000
     36 H15          3.9460    -2.7870     0.2960 ho         1 DF8       0.505000
@<TRIPOS>BOND
     1     1     9 1   
     2     1    22 1   
     3     2    15 ar  
     4     2    18 ar  
     5     2    19 1   
     6     3     9 1   
     7     3    14 1   
     8     3    19 1   
     9     3    23 1   
    10     4     6 1   
    11     4     7 1   
    12     4    14 1   
    13     4    24 1   
    14     5    12 1   
    15     5    13 1   
    16     5    25 1   
    17     6    20 1   
    18     6    26 1   
    19     6    27 1   
    20     7     9 1   
    21     7    21 1   
    22     7    28 1   
    23     8    13 2   
    24     8    15 1   
    25     9    29 1   
    26    10    16 1   
    27    10    30 1   
    28    10    31 1   
    29    11    16 ar  
    30    11    17 ar  
    31    12    32 1   
    32    12    33 1   
    33    13    19 1   
    34    15    16 ar  
    35    17    18 ar  
    36    17    34 1   
    37    20    35 1   
    38    21    36 1   
@<TRIPOS>SUBSTRUCTURE
     1 DF8         1 TEMP              0 ****  ****    0 ROOT
