@<TRIPOS>MOLECULE
DF8
   36    38     1     0     0
SMALL
No Charge or Current Charge


@<TRIPOS>ATOM
      1 O3           1.0260    -2.4750    -1.4920 oh         1 DF8      -0.667000
      2 C4          -1.5880    -0.5940     0.2160 ca         1 DF8       0.140500
      3 C5           0.9410    -0.7760     0.3750 c5         1 DF8       0.316300
      4 C6           3.2260    -0.1400     0.3110 c5         1 DF8       0.131300
      5 N1           0.4430     2.2740     0.2880 nu         1 DF8      -0.675200
      6 C7           3.5320     1.1320    -0.5360 c3         1 DF8       0.139600
      7 C8           3.0370    -1.4320    -0.5520 c5         1 DF8       0.100300
      8 N2          -1.8550     1.6840     0.0770 nc         1 DF8      -0.579100
      9 C9           1.5580    -1.2420    -0.9870 c5         1 DF8       0.131300
     10 N3          -4.8160     1.0820    -0.1680 nv         1 DF8      -1.051900
     11 N4          -4.2810    -1.1430    -0.0080 nb         1 DF8      -0.288000
     12 N            0.1500     3.7230     0.2030 n8         1 DF8      -0.703000
     13 C           -0.5680     1.3310     0.2180 cd         1 DF8       0.637700
     14 O            1.9620     0.0300     1.0130 os         1 DF8      -0.441000
     15 C1          -2.4800     0.4420     0.0820 ca         1 DF8      -0.071600
     16 C2          -3.8530     0.1290    -0.0290 ca         1 DF8       0.421900
     17 C3          -3.3230    -2.0900     0.1300 ca         1 DF8       0.167900
     18 N5          -1.9900    -1.8810     0.2460 nb         1 DF8      -0.206000
     19 N6          -0.3300    -0.0520     0.3010 na         1 DF8      -0.316300
     20 O1           3.7080     2.2790     0.3110 oh         1 DF8      -0.708000
     21 O2           3.1930    -2.6490     0.2050 oh         1 DF8      -0.682000
     22 H1           1.5690    -3.1690    -1.0430 ho         1 DF8       0.510000
     23 H2           0.7520    -1.6580     1.0000 h2         1 DF8       0.128700
     24 H3           4.0330    -0.2640     1.0460 h1         1 DF8       0.083700
     25 H4           1.3730     1.8900     0.5330 hn         1 DF8       0.485000
     26 H5           4.4490     0.9480    -1.1130 h1         1 DF8       0.027700
     27 H6           2.7220     1.3090    -1.2540 h1         1 DF8       0.027700
     28 H7           3.7110    -1.4350    -1.4200 h1         1 DF8       0.048700
     29 H8           1.4600    -0.4500    -1.7430 h1         1 DF8       0.056700
     30 H9          -4.5030     2.0240    -0.3920 hn         1 DF8       0.492500
     31 H10         -5.7280     0.8040    -0.5200 hn         1 DF8       0.492500
     32 H11          0.3060     4.2530     1.0760 hn         1 DF8       0.396500
     33 H12          0.6130     4.2180    -0.5780 hn         1 DF8       0.396500
     34 H13         -3.6580    -3.1250     0.1510 h5         1 DF8       0.046100
     35 H14          4.0580     3.0090    -0.2530 ho         1 DF8       0.505000
     36 H15          4.1450    -2.7280     0.4530 ho         1 DF8       0.505000
@<TRIPOS>BOND
     1     1     9 1   
     2     1    22 1   
     3     2    15 ar  
     4     2    18 ar  
     5     2    19 1   
     6     3     9 1   
     7     3    14 1   
     8     3    19 1   
     9     3    23 1   
    10     4     6 1   
    11     4     7 1   
    12     4    14 1   
    13     4    24 1   
    14     5    12 1   
    15     5    13 1   
    16     5    25 1   
    17     6    20 1   
    18     6    26 1   
    19     6    27 1   
    20     7     9 1   
    21     7    21 1   
    22     7    28 1   
    23     8    13 2   
    24     8    15 1   
    25     9    29 1   
    26    10    16 1   
    27    10    30 1   
    28    10    31 1   
    29    11    16 ar  
    30    11    17 ar  
    31    12    32 1   
    32    12    33 1   
    33    13    19 1   
    34    15    16 ar  
    35    17    18 ar  
    36    17    34 1   
    37    20    35 1   
    38    21    36 1   
@<TRIPOS>SUBSTRUCTURE
     1 DF8         1 TEMP              0 ****  ****    0 ROOT
