@<TRIPOS>MOLECULE
DF9
   49    52     1     0     0
SMALL
No Charge or Current Charge


@<TRIPOS>ATOM
      1 N6           7.6170     0.7470    -1.0970 nv         1 DF9      -1.074900
      2 C6           6.3050     1.0460    -0.9000 ca         1 DF9       0.385900
      3 N1           5.8010     2.0510    -1.6430 nb         1 DF9      -0.269000
      4 C2           4.4890     2.3600    -1.4440 ca         1 DF9       0.134900
      5 N3           3.6350     1.7620    -0.5740 nb         1 DF9      -0.146000
      6 C5           5.4910     0.3750     0.0200 ca         1 DF9      -0.221200
      7 C4           4.1910     0.7670     0.1380 ca         1 DF9       0.142800
      8 N7           5.7360    -0.6780     0.8940 na         1 DF9      -0.203700
      9 C8           4.5560    -0.9790     1.6120 cc         1 DF9      -0.149100
     10 C9           3.5970    -0.0820     1.1410 cd         1 DF9      -0.261000
     11 C10          2.1640    -0.0050     1.6020 c3         1 DF9       0.254000
     12 N2           1.2340    -0.6590     0.6610 n3         1 DF9      -0.689600
     13 C11          1.4670    -2.1070     0.4090 c5         1 DF9       0.124800
     14 C3           0.0990    -2.6430    -0.1540 c5         1 DF9       0.172300
     15 O3           0.2110    -3.2480    -1.4460 oh         1 DF9      -0.641000
     16 C1          -0.2000    -0.5690     1.0000 c5         1 DF9       0.163800
     17 C13         -0.7910    -1.3650    -0.1880 c5         1 DF9      -0.058700
     18 C12         -2.3070    -1.6470    -0.0990 c3         1 DF9       0.065600
     19 S6          -3.3150    -0.0960    -0.1320 ss         1 DF9      -0.431000
     20 C7          -5.0120    -0.8210    -0.0040 c3         1 DF9       0.114900
     21 C21         -6.0670     0.2750    -0.0040 ca         1 DF9      -0.077300
     22 C26         -6.6300     0.7200    -1.2160 ca         1 DF9      -0.092000
     23 C25         -7.6070     1.7310    -1.2160 ca         1 DF9      -0.111500
     24 C24         -8.0260     2.3040    -0.0030 ca         1 DF9      -0.104000
     25 C23         -7.4660     1.8660     1.2090 ca         1 DF9      -0.111500
     26 C22         -6.4900     0.8550     1.2090 ca         1 DF9      -0.092000
     27 HN6          8.1790     1.4010    -1.6370 hn         1 DF9       0.482000
     28 HN6A         8.1090     0.2010    -0.3950 hn         1 DF9       0.482000
     29 H2           4.0830     3.1720    -2.0440 h5         1 DF9       0.045100
     30 HN7          6.6220    -1.1650     0.9950 hn         1 DF9       0.349000
     31 H8           4.4960    -1.7680     2.3580 h4         1 DF9       0.212000
     32 H10          2.0850    -0.4700     2.5950 h1         1 DF9       0.037700
     33 H10A         1.8930     1.0530     1.7170 h1         1 DF9       0.037700
     34 H6           2.2960    -2.2590    -0.2960 h1         1 DF9       0.036700
     35 H2'A         1.7200    -2.6340     1.3390 h1         1 DF9       0.036700
     36 H3          -0.3180    -3.3690     0.5590 h1         1 DF9       0.025700
     37 HO3          0.8110    -4.0190    -1.3480 ho         1 DF9       0.438000
     38 H1          -0.4280    -1.0400     1.9670 h1         1 DF9       0.044200
     39 H1'A        -0.5570     0.4690     1.0230 h1         1 DF9       0.044200
     40 H4          -0.6280    -0.8120    -1.1200 hc         1 DF9       0.099700
     41 H5          -2.6050    -2.2790    -0.9460 h1         1 DF9       0.055700
     42 H5'A        -2.5230    -2.1930     0.8280 h1         1 DF9       0.055700
     43 H7          -5.1780    -1.5000    -0.8510 h1         1 DF9       0.061700
     44 H7'A        -5.0840    -1.4080     0.9210 h1         1 DF9       0.061700
     45 H26         -6.3090     0.2820    -2.1590 ha         1 DF9       0.114500
     46 H25         -8.0380     2.0710    -2.1550 ha         1 DF9       0.113500
     47 H24         -8.7810     3.0870    -0.0030 ha         1 DF9       0.112000
     48 H23         -7.7880     2.3100     2.1490 ha         1 DF9       0.113500
     49 H22         -6.0590     0.5220     2.1510 ha         1 DF9       0.114500
@<TRIPOS>BOND
     1     1     2 1   
     2     1    27 1   
     3     1    28 1   
     4     2     3 ar  
     5     2     6 ar  
     6     3     4 ar  
     7     4     5 ar  
     8     4    29 1   
     9     5     7 ar  
    10     6     7 ar  
    11     6     8 1   
    12     7    10 1   
    13     8     9 1   
    14     8    30 1   
    15     9    10 2   
    16     9    31 1   
    17    10    11 1   
    18    11    12 1   
    19    11    32 1   
    20    11    33 1   
    21    12    13 1   
    22    12    16 1   
    23    13    14 1   
    24    13    34 1   
    25    13    35 1   
    26    14    15 1   
    27    14    17 1   
    28    14    36 1   
    29    15    37 1   
    30    16    17 1   
    31    16    38 1   
    32    16    39 1   
    33    17    18 1   
    34    17    40 1   
    35    18    19 1   
    36    18    41 1   
    37    18    42 1   
    38    19    20 1   
    39    20    21 1   
    40    20    43 1   
    41    20    44 1   
    42    21    22 ar  
    43    21    26 ar  
    44    22    23 ar  
    45    22    45 1   
    46    23    24 ar  
    47    23    46 1   
    48    24    25 ar  
    49    24    47 1   
    50    25    26 ar  
    51    25    48 1   
    52    26    49 1   
@<TRIPOS>SUBSTRUCTURE
     1 DF9         1 TEMP              0 ****  ****    0 ROOT
