@<TRIPOS>MOLECULE
DF9
   49    52     1     0     0
SMALL
bcc


@<TRIPOS>ATOM
      1 N6           7.8160     0.0350    -0.5220 nv         1 DF9      -0.964500
      2 C6           6.5530     0.5000    -0.6060 ca         1 DF9       0.714200
      3 N1           6.2340     1.3080    -1.6130 nb         1 DF9      -0.795000
      4 C2           4.9720     1.7400    -1.7160 ca         1 DF9       0.660900
      5 N3           3.9510     1.4700    -0.9370 nb         1 DF9      -0.672000
      6 C5           5.5380     0.1420     0.2940 ca         1 DF9      -0.351800
      7 C4           4.2480     0.6450     0.0880 ca         1 DF9       0.471100
      8 N7           5.5080    -0.6470     1.4080 na         1 DF9      -0.153400
      9 C8           4.2410    -0.6530     1.8990 cc         1 DF9      -0.099100
     10 C9           3.4210     0.1300     1.1260 cd         1 DF9      -0.261000
     11 C10          1.9590     0.3540     1.3120 c3         1 DF9       0.254000
     12 N2           1.1770    -0.2740     0.2690 n3         1 DF9      -0.689600
     13 C11          1.2710    -1.7180     0.2330 c5         1 DF9       0.124800
     14 C3           0.1660    -2.1350    -0.7380 c5         1 DF9       0.149100
     15 O3           0.5970    -2.2340    -2.0780 oh         1 DF9      -0.578800
     16 C1          -0.2440    -0.0180     0.3780 c5         1 DF9       0.163800
     17 C13         -0.8600    -0.9840    -0.6380 c5         1 DF9      -0.058700
     18 C12         -2.2450    -1.4740    -0.2570 c3         1 DF9       0.017700
     19 S6          -3.4100    -0.0820    -0.2110 ss         1 DF9      -0.335200
     20 C7          -4.9410    -0.9690     0.2190 c3         1 DF9       0.067000
     21 C21         -6.0640     0.0220     0.2800 ca         1 DF9      -0.077300
     22 C26         -6.8260     0.3010    -0.8520 ca         1 DF9      -0.110000
     23 C25         -7.8510     1.2360    -0.8010 ca         1 DF9      -0.129500
     24 C24         -8.1210     1.9090     0.3840 ca         1 DF9      -0.122000
     25 C23         -7.3620     1.6420     1.5160 ca         1 DF9      -0.129500
     26 C22         -6.3380     0.7060     1.4620 ca         1 DF9      -0.110000
     27 HN6          8.5110     0.4590    -1.1140 hn         1 DF9       0.426800
     28 HN6A         8.1590    -0.3550     0.3380 hn         1 DF9       0.426800
     29 H2           4.7810     2.4000    -2.5570 h5         1 DF9       0.045100
     30 HN7          6.2730    -1.1680     1.8030 hn         1 DF9       0.298700
     31 H8           4.0000    -1.2250     2.7810 h4         1 DF9       0.162000
     32 H10          1.6620    -0.0100     2.3110 h1         1 DF9       0.037700
     33 H10A         1.7430     1.4270     1.2960 h1         1 DF9       0.037700
     34 H6           2.2610    -2.0580    -0.0780 h1         1 DF9       0.036700
     35 H2'A         1.0680    -2.1610     1.2260 h1         1 DF9       0.036700
     36 H3          -0.2770    -3.0850    -0.4110 h1         1 DF9       0.025700
     37 HO3          1.1750    -2.9990    -2.1500 ho         1 DF9       0.399000
     38 H1          -0.6260    -0.2440     1.3910 h1         1 DF9       0.044200
     39 H1'A        -0.4740     1.0300     0.1700 h1         1 DF9       0.044200
     40 H4          -0.9110    -0.4990    -1.6170 hc         1 DF9       0.099700
     41 H5          -2.6030    -2.2100    -0.9810 h1         1 DF9       0.055700
     42 H5'A        -2.2220    -1.9550     0.7250 h1         1 DF9       0.055700
     43 H7          -5.1310    -1.7310    -0.5380 h1         1 DF9       0.061700
     44 H7'A        -4.8070    -1.4690     1.1790 h1         1 DF9       0.061700
     45 H26         -6.6190    -0.2220    -1.7780 ha         1 DF9       0.132500
     46 H25         -8.4390     1.4380    -1.6870 ha         1 DF9       0.131500
     47 H24         -8.9220     2.6360     0.4250 ha         1 DF9       0.130000
     48 H23         -7.5670     2.1620     2.4420 ha         1 DF9       0.131500
     49 H22         -5.7480     0.5000     2.3480 ha         1 DF9       0.132500
@<TRIPOS>BOND
     1     1     2 1   
     2     1    27 1   
     3     1    28 1   
     4     2     3 ar  
     5     2     6 ar  
     6     3     4 ar  
     7     4     5 ar  
     8     4    29 1   
     9     5     7 ar  
    10     6     7 ar  
    11     6     8 1   
    12     7    10 1   
    13     8     9 1   
    14     8    30 1   
    15     9    10 2   
    16     9    31 1   
    17    10    11 1   
    18    11    12 1   
    19    11    32 1   
    20    11    33 1   
    21    12    13 1   
    22    12    16 1   
    23    13    14 1   
    24    13    34 1   
    25    13    35 1   
    26    14    15 1   
    27    14    17 1   
    28    14    36 1   
    29    15    37 1   
    30    16    17 1   
    31    16    38 1   
    32    16    39 1   
    33    17    18 1   
    34    17    40 1   
    35    18    19 1   
    36    18    41 1   
    37    18    42 1   
    38    19    20 1   
    39    20    21 1   
    40    20    43 1   
    41    20    44 1   
    42    21    22 ar  
    43    21    26 ar  
    44    22    23 ar  
    45    22    45 1   
    46    23    24 ar  
    47    23    46 1   
    48    24    25 ar  
    49    24    47 1   
    50    25    26 ar  
    51    25    48 1   
    52    26    49 1   
@<TRIPOS>SUBSTRUCTURE
     1 DF9         1 TEMP              0 ****  ****    0 ROOT
