@<TRIPOS>MOLECULE
DFA
   27    28     1     0     0
SMALL
No Charge or Current Charge


@<TRIPOS>ATOM
      1 C8           2.1700     0.1420     0.0260 c          1 DFA       0.727000
      2 O11          2.4060    -1.0310    -0.2290 o          1 DFA      -0.714500
      3 C5          -0.8850     1.1880    -3.3800 ca         1 DFA      -0.125250
      4 C4          -0.2060     1.4130    -2.1700 ca         1 DFA      -0.100250
      5 C3          -0.0360     0.3670    -1.2380 ca         1 DFA       0.006200
      6 C2          -0.5570    -0.9090    -1.5420 ca         1 DFA      -0.100250
      7 C1          -1.2360    -1.1330    -2.7520 ca         1 DFA      -0.125250
      8 C6          -1.4010    -0.0850    -3.6710 ca         1 DFA      -0.141000
      9 C10         -0.0930     0.1480     1.3050 ca         1 DFA       0.006200
     10 C16         -1.0090     1.0350     1.9110 ca         1 DFA      -0.100250
     11 C15         -1.7620     0.6400     3.0300 ca         1 DFA      -0.125250
     12 C14         -1.6120    -0.6510     3.5580 ca         1 DFA      -0.141000
     13 C13         -0.7120    -1.5470     2.9620 ca         1 DFA      -0.125250
     14 C12          0.0420    -1.1530     1.8430 ca         1 DFA      -0.100250
     15 C11          0.7000     0.6310     0.0780 c3         1 DFA      -0.142100
     16 O1           3.0520     0.9700     0.2090 o          1 DFA      -0.714500
     17 H2          -0.4340    -1.7310    -0.8420 ha         1 DFA       0.110000
     18 H1          -1.6330    -2.1200    -2.9760 ha         1 DFA       0.089750
     19 H6          -1.9260    -0.2590    -4.6080 ha         1 DFA       0.087000
     20 H16         -1.1400     2.0380     1.5110 ha         1 DFA       0.110000
     21 H15         -2.4620     1.3370     3.4860 ha         1 DFA       0.089750
     22 H14         -2.1950    -0.9570     4.4230 ha         1 DFA       0.087000
     23 H13         -0.5980    -2.5500     3.3660 ha         1 DFA       0.089750
     24 H12          0.7220    -1.8730     1.3990 ha         1 DFA       0.110000
     25 H11          0.7760     1.7180     0.2040 hc         1 DFA       0.044700
     26 H5          -1.0110     2.0010    -4.0910 ha         1 DFA       0.089750
     27 H4           0.1880     2.4040    -1.9570 ha         1 DFA       0.110000
@<TRIPOS>BOND
     1     1     2 1   
     2     1    15 1   
     3     1    16 1   
     4     3     4 ar  
     5     3     8 ar  
     6     3    26 1   
     7     4     5 ar  
     8     4    27 1   
     9     5     6 ar  
    10     5    15 1   
    11     6     7 ar  
    12     6    17 1   
    13     7     8 ar  
    14     7    18 1   
    15     8    19 1   
    16     9    10 ar  
    17     9    14 ar  
    18     9    15 1   
    19    10    11 ar  
    20    10    20 1   
    21    11    12 ar  
    22    11    21 1   
    23    12    13 ar  
    24    12    22 1   
    25    13    14 ar  
    26    13    23 1   
    27    14    24 1   
    28    15    25 1   
@<TRIPOS>SUBSTRUCTURE
     1 DFA         1 TEMP              0 ****  ****    0 ROOT
