@<TRIPOS>MOLECULE
DFA
   27    28     1     0     0
SMALL
abcg2


@<TRIPOS>ATOM
      1 C8           2.2330    -0.0430     0.0620 c          1 DFA       0.727000
      2 O11          2.7570    -0.2950    -1.0360 o          1 DFA      -0.714500
      3 C5          -1.3300     1.0290    -3.0880 ca         1 DFA      -0.125250
      4 C4          -0.5740     1.2900    -1.9500 ca         1 DFA      -0.100250
      5 C3           0.0280     0.2630    -1.2290 ca         1 DFA       0.006200
      6 C2          -0.1470    -1.0450    -1.6810 ca         1 DFA      -0.100250
      7 C1          -0.9050    -1.3140    -2.8110 ca         1 DFA      -0.125250
      8 C6          -1.5000    -0.2770    -3.5220 ca         1 DFA      -0.141000
      9 C10         -0.0310     0.2420     1.2470 ca         1 DFA       0.006200
     10 C16         -0.7660     1.2400     1.8790 ca         1 DFA      -0.100250
     11 C15         -1.5830     0.9570     2.9680 ca         1 DFA      -0.125250
     12 C14         -1.6810    -0.3430     3.4430 ca         1 DFA      -0.141000
     13 C13         -0.9540    -1.3510     2.8200 ca         1 DFA      -0.125250
     14 C12         -0.1360    -1.0600     1.7380 ca         1 DFA      -0.100250
     15 C11          0.8020     0.5680     0.0300 c3         1 DFA      -0.142100
     16 O1           2.7510    -0.1630     1.1870 o          1 DFA      -0.714500
     17 H2           0.3150    -1.8680    -1.1520 ha         1 DFA       0.110000
     18 H1          -1.0270    -2.3370    -3.1440 ha         1 DFA       0.089750
     19 H6          -2.0870    -0.4880    -4.4070 ha         1 DFA       0.087000
     20 H16         -0.7010     2.2600     1.5160 ha         1 DFA       0.110000
     21 H15         -2.1430     1.7520     3.4420 ha         1 DFA       0.089750
     22 H14         -2.3140    -0.5690     4.2910 ha         1 DFA       0.087000
     23 H13         -1.0190    -2.3690     3.1830 ha         1 DFA       0.089750
     24 H12          0.4260    -1.8610     1.2750 ha         1 DFA       0.110000
     25 H11          0.9660     1.6530     0.0450 hc         1 DFA       0.044700
     26 H5          -1.7830     1.8470    -3.6320 ha         1 DFA       0.089750
     27 H4          -0.4510     2.3150    -1.6180 ha         1 DFA       0.110000
@<TRIPOS>BOND
     1     1     2 1   
     2     1    15 1   
     3     1    16 1   
     4     3     4 ar  
     5     3     8 ar  
     6     3    26 1   
     7     4     5 ar  
     8     4    27 1   
     9     5     6 ar  
    10     5    15 1   
    11     6     7 ar  
    12     6    17 1   
    13     7     8 ar  
    14     7    18 1   
    15     8    19 1   
    16     9    10 ar  
    17     9    14 ar  
    18     9    15 1   
    19    10    11 ar  
    20    10    20 1   
    21    11    12 ar  
    22    11    21 1   
    23    12    13 ar  
    24    12    22 1   
    25    13    14 ar  
    26    13    23 1   
    27    14    24 1   
    28    15    25 1   
@<TRIPOS>SUBSTRUCTURE
     1 DFA         1 TEMP              0 ****  ****    0 ROOT
