@<TRIPOS>MOLECULE
DFB
   16    16     1     0     0
SMALL
bcc


@<TRIPOS>ATOM
      1 O1           0.0160    -0.0120     3.2490 oh         1 DFB      -0.596800
      2 C7           0.8520    -0.0060     2.1250 c3         1 DFB       0.189700
      3 C1           0.0100    -0.0080     0.8770 ca         1 DFB      -0.098300
      4 C2           0.6350     0.0190    -0.3590 ca         1 DFB       0.088900
      5 F2           1.9740     0.0490    -0.4250 f          1 DFB      -0.131900
      6 C6          -1.3810    -0.0370     0.8950 ca         1 DFB      -0.094000
      7 C5          -2.1080    -0.0380    -0.2870 ca         1 DFB      -0.122000
      8 C4          -1.4670    -0.0110    -1.5170 ca         1 DFB      -0.145000
      9 C3          -0.0880     0.0180    -1.5370 ca         1 DFB       0.098900
     10 F3           0.5740     0.0460    -2.7000 f          1 DFB      -0.127900
     11 HO1          0.5710    -0.0330     4.0340 ho         1 DFB       0.412000
     12 HC71         1.5060     0.8750     2.1120 h1         1 DFB       0.037200
     13 HC72         1.5130    -0.8830     2.1080 h1         1 DFB       0.037200
     14 HC6         -1.9050    -0.0580     1.8390 ha         1 DFB       0.158000
     15 HC5         -3.1890    -0.0600    -0.2520 ha         1 DFB       0.141000
     16 HC4         -2.0230    -0.0130    -2.4450 ha         1 DFB       0.153000
@<TRIPOS>BOND
     1     1     2 1   
     2     1    11 1   
     3     2     3 1   
     4     2    12 1   
     5     2    13 1   
     6     3     4 ar  
     7     3     6 ar  
     8     4     5 1   
     9     4     9 ar  
    10     6     7 ar  
    11     6    14 1   
    12     7     8 ar  
    13     7    15 1   
    14     8     9 ar  
    15     8    16 1   
    16     9    10 1   
@<TRIPOS>SUBSTRUCTURE
     1 DFB         1 TEMP              0 ****  ****    0 ROOT
