@<TRIPOS>MOLECULE
DFB
   16    16     1     0     0
SMALL
No Charge or Current Charge


@<TRIPOS>ATOM
      1 O1           0.5490     0.9590     2.9750 oh         1 DFB      -0.659000
      2 C7           0.7490    -0.2280     2.1990 c3         1 DFB       0.212900
      3 C1          -0.0150    -0.1310     0.8840 ca         1 DFB      -0.098300
      4 C2           0.6230     0.2910    -0.3040 ca         1 DFB       0.124000
      5 F2           1.9370     0.6210    -0.2920 f          1 DFB      -0.167000
      6 C6          -1.3850    -0.4680     0.8450 ca         1 DFB      -0.076000
      7 C5          -2.1070    -0.3870    -0.3600 ca         1 DFB      -0.104000
      8 C4          -1.4660     0.0330    -1.5380 ca         1 DFB      -0.127000
      9 C3          -0.1030     0.3710    -1.5080 ca         1 DFB       0.134000
     10 F3           0.5060     0.7750    -2.6470 f          1 DFB      -0.163000
     11 HO1          1.0620     0.8440     3.8060 ho         1 DFB       0.451000
     12 HC71         1.8190    -0.3810     2.0010 h1         1 DFB       0.037200
     13 HC72         0.3960    -1.1080     2.7530 h1         1 DFB       0.037200
     14 HC6         -1.8910    -0.7920     1.7530 ha         1 DFB       0.140000
     15 HC5         -3.1630    -0.6490    -0.3780 ha         1 DFB       0.123000
     16 HC4         -2.0210     0.0970    -2.4710 ha         1 DFB       0.135000
@<TRIPOS>BOND
     1     1     2 1   
     2     1    11 1   
     3     2     3 1   
     4     2    12 1   
     5     2    13 1   
     6     3     4 ar  
     7     3     6 ar  
     8     4     5 1   
     9     4     9 ar  
    10     6     7 ar  
    11     6    14 1   
    12     7     8 ar  
    13     7    15 1   
    14     8     9 ar  
    15     8    16 1   
    16     9    10 1   
@<TRIPOS>SUBSTRUCTURE
     1 DFB         1 TEMP              0 ****  ****    0 ROOT
