@<TRIPOS>MOLECULE
DFD
   35    34     1     0     0
SMALL
abcg2


@<TRIPOS>ATOM
      1 C11          7.5960    -0.3930     0.0070 c3         1 DFD      -0.089100
      2 C10          6.3350     0.4610     0.0120 c3         1 DFD      -0.074400
      3 C9           5.0590    -0.3730     0.0070 c3         1 DFD      -0.075400
      4 C8           3.7880     0.4670     0.0100 c3         1 DFD      -0.074400
      5 C7           2.5150    -0.3710    -0.0000 c3         1 DFD      -0.074400
      6 C6           1.2430     0.4680     0.0010 c3         1 DFD      -0.074400
      7 C5          -0.0290    -0.3710    -0.0190 c3         1 DFD      -0.074400
      8 C4          -1.2970     0.4740    -0.0240 c3         1 DFD      -0.075400
      9 C3          -2.5670    -0.3700    -0.0570 c3         1 DFD      -0.084400
     10 C2          -3.7990     0.5050    -0.0760 c3         1 DFD       0.175600
     11 O2          -4.9640    -0.3370    -0.1380 os         1 DFD      -0.454100
     12 C1          -6.1340     0.2340     0.0770 c          1 DFD       0.601900
     13 O1          -7.1600    -0.3840     0.0090 o          1 DFD      -0.439000
     14 H111         8.4990     0.2180     0.0110 hc         1 DFD       0.031700
     15 H112         7.6330    -1.0440     0.8830 hc         1 DFD       0.031700
     16 H113         7.6330    -1.0320    -0.8780 hc         1 DFD       0.031700
     17 H101         6.3370     1.1150     0.8900 hc         1 DFD       0.036700
     18 H102         6.3370     1.1240    -0.8590 hc         1 DFD       0.036700
     19 H91          5.0590    -1.0280    -0.8720 hc         1 DFD       0.037700
     20 H92          5.0580    -1.0370     0.8780 hc         1 DFD       0.037700
     21 H81          3.7860     1.1200     0.8900 hc         1 DFD       0.036700
     22 H82          3.7910     1.1330    -0.8610 hc         1 DFD       0.036700
     23 H71          2.5180    -1.0240    -0.8800 hc         1 DFD       0.038700
     24 H72          2.5110    -1.0360     0.8710 hc         1 DFD       0.038700
     25 H61          1.2370     1.1170     0.8830 hc         1 DFD       0.037700
     26 H62          1.2490     1.1360    -0.8680 hc         1 DFD       0.037700
     27 H51         -0.0220    -1.0210    -0.9000 hc         1 DFD       0.041200
     28 H52         -0.0400    -1.0370     0.8510 hc         1 DFD       0.041200
     29 H41         -1.3070     1.1190     0.8620 hc         1 DFD       0.038700
     30 H42         -1.2810     1.1440    -0.8900 hc         1 DFD       0.038700
     31 H31         -2.5580    -1.0110    -0.9430 hc         1 DFD       0.060200
     32 H32         -2.5960    -1.0280     0.8170 hc         1 DFD       0.060200
     33 H21         -3.8420     1.1290     0.8220 h1         1 DFD       0.036700
     34 H22         -3.7880     1.1650    -0.9470 h1         1 DFD       0.036700
     35 H1          -6.0840     1.3050     0.3270 h5         1 DFD      -0.010800
@<TRIPOS>BOND
     1     1     2 1   
     2     1    14 1   
     3     1    15 1   
     4     1    16 1   
     5     2     3 1   
     6     2    17 1   
     7     2    18 1   
     8     3     4 1   
     9     3    19 1   
    10     3    20 1   
    11     4     5 1   
    12     4    21 1   
    13     4    22 1   
    14     5     6 1   
    15     5    23 1   
    16     5    24 1   
    17     6     7 1   
    18     6    25 1   
    19     6    26 1   
    20     7     8 1   
    21     7    27 1   
    22     7    28 1   
    23     8     9 1   
    24     8    29 1   
    25     8    30 1   
    26     9    10 1   
    27     9    31 1   
    28     9    32 1   
    29    10    11 1   
    30    10    33 1   
    31    10    34 1   
    32    11    12 1   
    33    12    13 2   
    34    12    35 1   
@<TRIPOS>SUBSTRUCTURE
     1 DFD         1 TEMP              0 ****  ****    0 ROOT
