@<TRIPOS>MOLECULE
DFD
   35    34     1     0     0
SMALL
No Charge or Current Charge


@<TRIPOS>ATOM
      1 C11          7.6870    -0.4100    -0.0040 c3         1 DFD      -0.089100
      2 C10          6.4080     0.4480     0.0090 c3         1 DFD      -0.074400
      3 C9           5.1140    -0.3940    -0.0060 c3         1 DFD      -0.075400
      4 C8           3.8310     0.4660     0.0060 c3         1 DFD      -0.074400
      5 C7           2.5370    -0.3770    -0.0090 c3         1 DFD      -0.074400
      6 C6           1.2550     0.4840     0.0040 c3         1 DFD      -0.074400
      7 C5          -0.0390    -0.3590    -0.0110 c3         1 DFD      -0.074400
      8 C4          -1.3210     0.5030     0.0010 c3         1 DFD      -0.075400
      9 C3          -2.6160    -0.3400    -0.0140 c3         1 DFD      -0.084400
     10 C2          -3.8940     0.5200    -0.0010 c3         1 DFD       0.175600
     11 O2          -5.0170    -0.3730    -0.0160 os         1 DFD      -0.454100
     12 C1          -6.2580     0.2030    -0.0080 c          1 DFD       0.601900
     13 O1          -7.2830    -0.4640    -0.0200 o          1 DFD      -0.439000
     14 H111         8.5770     0.2300     0.0080 hc         1 DFD       0.031700
     15 H112         7.7240    -1.0650     0.8750 hc         1 DFD       0.031700
     16 H113         7.7260    -1.0350    -0.9040 hc         1 DFD       0.031700
     17 H101         6.4160     1.0870     0.9010 hc         1 DFD       0.036700
     18 H102         6.4180     1.1160    -0.8620 hc         1 DFD       0.036700
     19 H91          5.1100    -1.0330    -0.8990 hc         1 DFD       0.037700
     20 H92          5.1080    -1.0620     0.8650 hc         1 DFD       0.037700
     21 H81          3.8350     1.1050     0.8990 hc         1 DFD       0.036700
     22 H82          3.8370     1.1340    -0.8650 hc         1 DFD       0.036700
     23 H71          2.5340    -1.0150    -0.9010 hc         1 DFD       0.038700
     24 H72          2.5320    -1.0440     0.8620 hc         1 DFD       0.038700
     25 H61          1.2590     1.1230     0.8960 hc         1 DFD       0.037700
     26 H62          1.2610     1.1510    -0.8680 hc         1 DFD       0.037700
     27 H51         -0.0420    -0.9970    -0.9040 hc         1 DFD       0.041200
     28 H52         -0.0440    -1.0260     0.8600 hc         1 DFD       0.041200
     29 H41         -1.3170     1.1410     0.8940 hc         1 DFD       0.038700
     30 H42         -1.3150     1.1700    -0.8700 hc         1 DFD       0.038700
     31 H31         -2.6230    -0.9770    -0.9070 hc         1 DFD       0.060200
     32 H32         -2.6250    -1.0060     0.8590 hc         1 DFD       0.060200
     33 H21         -3.9070     1.1470     0.9010 h1         1 DFD       0.036700
     34 H22         -3.9050     1.1750    -0.8820 h1         1 DFD       0.036700
     35 H1          -6.2460     1.3090     0.0100 h5         1 DFD      -0.010800
@<TRIPOS>BOND
     1     1     2 1   
     2     1    14 1   
     3     1    15 1   
     4     1    16 1   
     5     2     3 1   
     6     2    17 1   
     7     2    18 1   
     8     3     4 1   
     9     3    19 1   
    10     3    20 1   
    11     4     5 1   
    12     4    21 1   
    13     4    22 1   
    14     5     6 1   
    15     5    23 1   
    16     5    24 1   
    17     6     7 1   
    18     6    25 1   
    19     6    26 1   
    20     7     8 1   
    21     7    27 1   
    22     7    28 1   
    23     8     9 1   
    24     8    29 1   
    25     8    30 1   
    26     9    10 1   
    27     9    31 1   
    28     9    32 1   
    29    10    11 1   
    30    10    33 1   
    31    10    34 1   
    32    11    12 1   
    33    12    13 2   
    34    12    35 1   
@<TRIPOS>SUBSTRUCTURE
     1 DFD         1 TEMP              0 ****  ****    0 ROOT
