@<TRIPOS>MOLECULE
DFE
   15    14     1     0     0
SMALL
No Charge or Current Charge


@<TRIPOS>ATOM
      1 CAA          2.8750     0.1120     1.2270 c3         1 DFE      -0.124100
      2 CAI          1.9820     0.0310    -0.0180 c3         1 DFE       0.397000
      3 FAB          2.2540     1.0750    -0.8340 f          1 DFE      -0.135000
      4 FAC          2.2650    -1.1020    -0.7000 f          1 DFE      -0.135000
      5 OAH          0.6180     0.0510     0.4380 os         1 DFE      -0.473000
      6 CAG         -0.3960    -0.0170    -0.5970 c3         1 DFE       0.091600
      7 CAJ         -1.8030     0.0150     0.0490 c3         1 DFE       0.310000
      8 FAE         -1.9920     1.1550     0.7540 f          1 DFE      -0.107000
      9 FAF         -2.7630    -0.0490    -0.9020 f          1 DFE      -0.107000
     10 FAD         -1.9800    -1.0320     0.8880 f          1 DFE      -0.107000
     11 HAA1         2.6760     1.0360     1.7810 hc         1 DFE       0.075700
     12 HAA2         2.6860    -0.7400     1.8900 hc         1 DFE       0.075700
     13 HAA3         3.9330     0.1000     0.9420 hc         1 DFE       0.075700
     14 HAG1        -0.3090     0.8300    -1.2900 h1         1 DFE       0.081700
     15 HAG2        -0.3000    -0.9420    -1.1810 h1         1 DFE       0.081700
@<TRIPOS>BOND
     1     1     2 1   
     2     1    11 1   
     3     1    12 1   
     4     1    13 1   
     5     2     3 1   
     6     2     4 1   
     7     2     5 1   
     8     5     6 1   
     9     6     7 1   
    10     6    14 1   
    11     6    15 1   
    12     7     8 1   
    13     7     9 1   
    14     7    10 1   
@<TRIPOS>SUBSTRUCTURE
     1 DFE         1 TEMP              0 ****  ****    0 ROOT
