@<TRIPOS>MOLECULE
DFE
   15    14     1     0     0
SMALL
bcc


@<TRIPOS>ATOM
      1 CAA          2.8090     0.1040     1.2350 c3         1 DFE      -0.124100
      2 CAI          1.9170     0.0500     0.0290 c3         1 DFE       0.616400
      3 FAB          2.1380     1.1250    -0.7840 f          1 DFE      -0.256300
      4 FAC          2.2200    -1.0280    -0.7520 f          1 DFE      -0.256300
      5 OAH          0.6140     0.0050     0.3940 os         1 DFE      -0.426600
      6 CAG         -0.3590    -0.0650    -0.6320 c3         1 DFE       0.068400
      7 CAJ         -1.6990     0.0350     0.0570 c3         1 DFE       0.673900
      8 FAE         -1.8420     1.1850     0.7220 f          1 DFE      -0.228300
      9 FAF         -2.6830    -0.0350    -0.8450 f          1 DFE      -0.228300
     10 FAD         -1.8870    -0.9530     0.9380 f          1 DFE      -0.228300
     11 HAA1         2.5940     0.9900     1.8290 hc         1 DFE       0.075700
     12 HAA2         2.6610    -0.7760     1.8590 hc         1 DFE       0.075700
     13 HAA3         3.8520     0.1380     0.9240 hc         1 DFE       0.075700
     14 HAG1        -0.2730     0.7560    -1.3470 h1         1 DFE       0.081700
     15 HAG2        -0.3160    -1.0100    -1.1780 h1         1 DFE       0.081700
@<TRIPOS>BOND
     1     1     2 1   
     2     1    11 1   
     3     1    12 1   
     4     1    13 1   
     5     2     3 1   
     6     2     4 1   
     7     2     5 1   
     8     5     6 1   
     9     6     7 1   
    10     6    14 1   
    11     6    15 1   
    12     7     8 1   
    13     7     9 1   
    14     7    10 1   
@<TRIPOS>SUBSTRUCTURE
     1 DFE         1 TEMP              0 ****  ****    0 ROOT
