@<TRIPOS>MOLECULE
DFH
   29    30     1     0     0
SMALL
No Charge or Current Charge


@<TRIPOS>ATOM
      1 C1          -1.4080     1.0830    -0.0970 ca         1 DFH      -0.097250
      2 C2          -2.5320     1.6860     0.4920 ca         1 DFH      -0.114250
      3 C3          -3.5280     0.8940     1.0830 ca         1 DFH      -0.105500
      4 C4          -3.4010    -0.5040     1.0790 ca         1 DFH      -0.114250
      5 C5          -2.2770    -1.1100     0.4910 ca         1 DFH      -0.097250
      6 C6          -1.2560    -0.3230    -0.0970 ca         1 DFH      -0.112800
      7 C7          -0.0150    -0.9540    -0.7650 c3         1 DFH       0.284600
      8 C8           1.2660    -0.1940    -0.3500 ca         1 DFH      -0.112800
      9 C9           2.2180     0.2800    -1.2870 ca         1 DFH      -0.097250
     10 C10          3.3680     0.9660    -0.8570 ca         1 DFH      -0.114250
     11 C11          3.5890     1.1890     0.5100 ca         1 DFH      -0.105500
     12 O15          0.1570    -2.3050    -0.3330 oh         1 DFH      -0.656000
     13 C14         -0.2600    -1.0060    -2.2920 c3         1 DFH      -0.077100
     14 C13          1.5080     0.0380     1.0250 ca         1 DFH      -0.097250
     15 C12          2.6580     0.7250     1.4510 ca         1 DFH      -0.114250
     16 H1          -0.6510     1.7150    -0.5560 ha         1 DFH       0.117250
     17 H2          -2.6320     2.7690     0.4880 ha         1 DFH       0.112500
     18 H3          -4.3990     1.3610     1.5390 ha         1 DFH       0.113000
     19 H4          -4.1760    -1.1200     1.5290 ha         1 DFH       0.112500
     20 H5          -2.2140    -2.1960     0.4910 ha         1 DFH       0.117250
     21 H6           2.0860     0.1270    -2.3540 ha         1 DFH       0.117250
     22 H7           4.0890     1.3240    -1.5880 ha         1 DFH       0.112500
     23 H8           4.4800     1.7200     0.8400 ha         1 DFH       0.113000
     24 H9           0.4650    -2.2510     0.5940 ho         1 DFH       0.447000
     25 H10         -0.3370     0.0050    -2.7090 hc         1 DFH       0.046700
     26 H11          0.5490    -1.5370    -2.8070 hc         1 DFH       0.046700
     27 H12         -1.1960    -1.5320    -2.5120 hc         1 DFH       0.046700
     28 H13          0.7970    -0.3070     1.7730 ha         1 DFH       0.117250
     29 H14          2.8260     0.8970     2.5120 ha         1 DFH       0.112500
@<TRIPOS>BOND
     1     1     2 ar  
     2     1     6 ar  
     3     1    16 1   
     4     2     3 ar  
     5     2    17 1   
     6     3     4 ar  
     7     3    18 1   
     8     4     5 ar  
     9     4    19 1   
    10     5     6 ar  
    11     5    20 1   
    12     6     7 1   
    13     7     8 1   
    14     7    12 1   
    15     7    13 1   
    16     8     9 ar  
    17     8    14 ar  
    18     9    10 ar  
    19     9    21 1   
    20    10    11 ar  
    21    10    22 1   
    22    11    15 ar  
    23    11    23 1   
    24    12    24 1   
    25    13    25 1   
    26    13    26 1   
    27    13    27 1   
    28    14    15 ar  
    29    14    28 1   
    30    15    29 1   
@<TRIPOS>SUBSTRUCTURE
     1 DFH         1 TEMP              0 ****  ****    0 ROOT
