@<TRIPOS>MOLECULE
DFH
   29    30     1     0     0
SMALL
abcg2


@<TRIPOS>ATOM
      1 C1          -1.2520     1.0940     0.2870 ca         1 DFH      -0.097250
      2 C2          -2.4400     1.7410     0.6110 ca         1 DFH      -0.114250
      3 C3          -3.6360     1.0420     0.6320 ca         1 DFH      -0.105500
      4 C4          -3.6360    -0.3140     0.3280 ca         1 DFH      -0.114250
      5 C5          -2.4510    -0.9560     0.0060 ca         1 DFH      -0.097250
      6 C6          -1.2390    -0.2610    -0.0280 ca         1 DFH      -0.112800
      7 C7           0.0290    -1.0360    -0.4000 c3         1 DFH       0.284600
      8 C8           1.2930    -0.2070    -0.1800 ca         1 DFH      -0.112800
      9 C9           1.6650     0.7870    -1.0850 ca         1 DFH      -0.097250
     10 C10          2.8090     1.5470    -0.8870 ca         1 DFH      -0.114250
     11 C11          3.6080     1.3300     0.2270 ca         1 DFH      -0.105500
     12 O15          0.0780    -2.2330     0.3540 oh         1 DFH      -0.656000
     13 C14         -0.0570    -1.4870    -1.8600 c3         1 DFH      -0.077100
     14 C13          2.1030    -0.4150     0.9330 ca         1 DFH      -0.097250
     15 C12          3.2480     0.3460     1.1360 ca         1 DFH      -0.114250
     16 H1          -0.3360     1.6680     0.2910 ha         1 DFH       0.117250
     17 H2          -2.4220     2.7960     0.8510 ha         1 DFH       0.112500
     18 H3          -4.5610     1.5460     0.8850 ha         1 DFH       0.113000
     19 H4          -4.5610    -0.8750     0.3430 ha         1 DFH       0.112500
     20 H5          -2.4750    -2.0150    -0.2190 ha         1 DFH       0.117250
     21 H6           1.0580     0.9850    -1.9600 ha         1 DFH       0.117250
     22 H7           3.0760     2.3090    -1.6090 ha         1 DFH       0.112500
     23 H8           4.5030     1.9190     0.3830 ha         1 DFH       0.113000
     24 H9          -0.1090    -2.0350     1.2780 ho         1 DFH       0.447000
     25 H10         -0.1790    -0.6430    -2.5360 hc         1 DFH       0.046700
     26 H11          0.8460    -2.0260    -2.1510 hc         1 DFH       0.046700
     27 H12         -0.9130    -2.1480    -2.0030 hc         1 DFH       0.046700
     28 H13          1.8630    -1.1800     1.6590 ha         1 DFH       0.117250
     29 H14          3.8630     0.1620     2.0080 ha         1 DFH       0.112500
@<TRIPOS>BOND
     1     1     2 ar  
     2     1     6 ar  
     3     1    16 1   
     4     2     3 ar  
     5     2    17 1   
     6     3     4 ar  
     7     3    18 1   
     8     4     5 ar  
     9     4    19 1   
    10     5     6 ar  
    11     5    20 1   
    12     6     7 1   
    13     7     8 1   
    14     7    12 1   
    15     7    13 1   
    16     8     9 ar  
    17     8    14 ar  
    18     9    10 ar  
    19     9    21 1   
    20    10    11 ar  
    21    10    22 1   
    22    11    15 ar  
    23    11    23 1   
    24    12    24 1   
    25    13    25 1   
    26    13    26 1   
    27    13    27 1   
    28    14    15 ar  
    29    14    28 1   
    30    15    29 1   
@<TRIPOS>SUBSTRUCTURE
     1 DFH         1 TEMP              0 ****  ****    0 ROOT
