@<TRIPOS>MOLECULE
DFI
   28    27     1     0     0
SMALL
bcc


@<TRIPOS>ATOM
      1 N           -0.4270     1.7100     1.0360 n8         1 DFI      -0.921800
      2 CA           0.0110     0.3180     0.9780 c3         1 DFI       0.129500
      3 CB          -0.5560    -0.4730     2.1560 c3         1 DFI      -0.085400
      4 CG          -0.0770    -0.0450     3.5460 c3         1 DFI      -0.064700
      5 CD1         -0.7300    -0.9320     4.6030 c3         1 DFI      -0.086600
      6 CD2          1.4430    -0.0890     3.6710 c3         1 DFI      -0.086600
      7 CH          -0.5190    -0.2810    -0.3500 c3         1 DFI       0.118100
      8 OH          -1.7790     0.2600    -0.6350 oh         1 DFI      -0.585800
      9 CM           0.4110    -0.0530    -1.5350 c3         1 DFI       0.227600
     10 F1           0.7630     1.2660    -1.6150 f          1 DFI      -0.273300
     11 F2           1.5910    -0.7240    -1.2980 f          1 DFI      -0.273300
     12 C           -0.1700    -0.5490    -2.8810 c          1 DFI       0.937600
     13 O           -0.2640     0.2780    -3.7970 o          1 DFI      -0.798300
     14 OXT         -0.4700    -1.7540    -2.8780 o          1 DFI      -0.798300
     15 H            0.2630     2.3360     0.6450 hn         1 DFI       0.349800
     16 H2          -0.5930     2.0090     1.9860 hn         1 DFI       0.349800
     17 HA           1.1020     0.2280     1.0010 h1         1 DFI       0.043700
     18 HB2         -0.2900    -1.5250     2.0140 hc         1 DFI       0.052700
     19 HB3         -1.6500    -0.4250     2.1220 hc         1 DFI       0.052700
     20 HG          -0.4040     0.9830     3.7440 hc         1 DFI       0.033700
     21 HD11        -0.4320    -0.6340     5.6090 hc         1 DFI       0.029033
     22 HD12        -1.8180    -0.8800     4.5480 hc         1 DFI       0.029033
     23 HD13        -0.4410    -1.9780     4.4680 hc         1 DFI       0.029033
     24 HD21         1.8260    -1.0850     3.4340 hc         1 DFI       0.029033
     25 HD22         1.9340     0.6210     3.0040 hc         1 DFI       0.029033
     26 HD23         1.7560     0.1540     4.6880 hc         1 DFI       0.029033
     27 HC          -0.6100    -1.3660    -0.2400 h1         1 DFI       0.082700
     28 HH          -1.7530     1.1210    -0.1680 ho         1 DFI       0.422000
@<TRIPOS>BOND
     1     1     2 1   
     2     1    15 1   
     3     1    16 1   
     4     2     3 1   
     5     2     7 1   
     6     2    17 1   
     7     3     4 1   
     8     3    18 1   
     9     3    19 1   
    10     4     5 1   
    11     4     6 1   
    12     4    20 1   
    13     5    21 1   
    14     5    22 1   
    15     5    23 1   
    16     6    24 1   
    17     6    25 1   
    18     6    26 1   
    19     7     8 1   
    20     7     9 1   
    21     7    27 1   
    22     8    28 1   
    23     9    10 1   
    24     9    11 1   
    25     9    12 1   
    26    12    13 1   
    27    12    14 1   
@<TRIPOS>SUBSTRUCTURE
     1 DFI         1 TEMP              0 ****  ****    0 ROOT
