@<TRIPOS>MOLECULE
DFI
   28    27     1     0     0
SMALL
No Charge or Current Charge


@<TRIPOS>ATOM
      1 N           -0.4340     1.7310     1.1030 n8         1 DFI      -0.921800
      2 CA          -0.0240     0.3090     0.9650 c3         1 DFI       0.129500
      3 CB          -0.5720    -0.5130     2.1650 c3         1 DFI      -0.085400
      4 CG          -0.0770    -0.0830     3.5790 c3         1 DFI      -0.064700
      5 CD1         -0.7860    -0.9040     4.6810 c3         1 DFI      -0.086600
      6 CD2          1.4600    -0.1790     3.7330 c3         1 DFI      -0.086600
      7 CH          -0.5110    -0.2630    -0.4080 c3         1 DFI       0.118100
      8 OH          -1.8280     0.2740    -0.6120 oh         1 DFI      -0.585800
      9 CM           0.4230     0.0770    -1.6190 c3         1 DFI       0.227600
     10 F1           0.5440     1.4350    -1.7410 f          1 DFI      -0.273300
     11 F2           1.6820    -0.3710    -1.3400 f          1 DFI      -0.273300
     12 C           -0.1370    -0.6060    -2.9400 c          1 DFI       0.937600
     13 O           -0.3080     0.0720    -3.9560 o          1 DFI      -0.798300
     14 OXT         -0.3180    -1.8250    -2.9520 o          1 DFI      -0.798300
     15 H            0.1020     2.2920     0.4310 hn         1 DFI       0.349800
     16 H2          -0.1240     2.0750     2.0170 hn         1 DFI       0.349800
     17 HA           1.0730     0.2630     0.9950 h1         1 DFI       0.043700
     18 HB2         -0.3060    -1.5670     2.0140 hc         1 DFI       0.052700
     19 HB3         -1.6680    -0.4710     2.1470 hc         1 DFI       0.052700
     20 HG          -0.3590     0.9650     3.7380 hc         1 DFI       0.033700
     21 HD11        -0.4780    -0.5630     5.6770 hc         1 DFI       0.029033
     22 HD12        -1.8750    -0.7920     4.6090 hc         1 DFI       0.029033
     23 HD13        -0.5440    -1.9700     4.5920 hc         1 DFI       0.029033
     24 HD21         1.8120    -1.1970     3.5250 hc         1 DFI       0.029033
     25 HD22         1.9720     0.5100     3.0500 hc         1 DFI       0.029033
     26 HD23         1.7630     0.0860     4.7530 hc         1 DFI       0.029033
     27 HC          -0.5530    -1.3580    -0.3320 h1         1 DFI       0.082700
     28 HH          -1.8140     1.0650    -0.0190 ho         1 DFI       0.422000
@<TRIPOS>BOND
     1     1     2 1   
     2     1    15 1   
     3     1    16 1   
     4     2     3 1   
     5     2     7 1   
     6     2    17 1   
     7     3     4 1   
     8     3    18 1   
     9     3    19 1   
    10     4     5 1   
    11     4     6 1   
    12     4    20 1   
    13     5    21 1   
    14     5    22 1   
    15     5    23 1   
    16     6    24 1   
    17     6    25 1   
    18     6    26 1   
    19     7     8 1   
    20     7     9 1   
    21     7    27 1   
    22     8    28 1   
    23     9    10 1   
    24     9    11 1   
    25     9    12 1   
    26    12    13 1   
    27    12    14 1   
@<TRIPOS>SUBSTRUCTURE
     1 DFI         1 TEMP              0 ****  ****    0 ROOT
