@<TRIPOS>MOLECULE
DFJ
   71    73     1     0     0
SMALL
No Charge or Current Charge


@<TRIPOS>ATOM
      1 C1          14.0800    35.6370    10.8350 ca         1 DFJ      -0.080500
      2 C2          12.7460    35.2960    10.5260 ca         1 DFJ      -0.035300
      3 C3          11.9520    34.6970    11.5280 ca         1 DFJ      -0.080500
      4 C4          12.4840    34.4360    12.8030 ca         1 DFJ      -0.118000
      5 C5          13.8160    34.7720    13.1020 ca         1 DFJ      -0.137300
      6 C6          14.6110    35.3760    12.1100 ca         1 DFJ      -0.118000
      7 C11         12.1660    35.5770     9.1320 c3         1 DFJ      -0.046700
      8 P12         11.3460    37.2850     9.0060 p5         1 DFJ       1.268500
      9 F13         11.2470    34.6340     8.7910 f          1 DFJ      -0.163000
     10 F14         13.1320    35.4940     8.1790 f          1 DFJ      -0.163000
     11 O15         10.8090    37.4880     7.6250 o          1 DFJ      -0.902167
     12 O16         12.3500    38.3530     9.3000 o          1 DFJ      -0.902167
     13 O17         10.2200    37.3810     9.9860 o          1 DFJ      -0.902167
     14 C20         14.3990    34.4840    14.4840 c3         1 DFJ      -0.085100
     15 C21         15.1990    33.1740    14.4830 c          1 DFJ       0.607100
     16 O24         14.6690    32.0720    14.5380 o          1 DFJ      -0.608100
     17 N25         16.5670    33.3250    14.4100 ns         1 DFJ      -0.513900
     18 C26         17.5480    32.2170    14.3550 c3         1 DFJ       0.039700
     19 C27         18.9520    32.7230    14.8110 c          1 DFJ       0.578100
     20 O30         19.2220    33.9090    14.9550 o          1 DFJ      -0.604100
     21 N31         19.8820    31.7370    15.0700 ns         1 DFJ      -0.503900
     22 C32         21.2470    31.9820    15.5930 c3         1 DFJ       0.021700
     23 C33         22.2080    32.4490    14.4630 c          1 DFJ       0.612100
     24 O34         23.0160    33.3540    14.5990 o          1 DFJ      -0.578100
     25 C35         21.7690    30.7010    16.2840 c3         1 DFJ      -0.014100
     26 C37         23.1060    30.9110    16.9830 ca         1 DFJ      -0.144300
     27 N40         22.0750    31.8430    13.2580 nt         1 DFJ      -0.608000
     28 C43         18.4440    30.3360    12.8320 ca         1 DFJ      -0.068300
     29 C46         18.1990    29.2220    13.6610 ca         1 DFJ      -0.103000
     30 C47         19.0300    28.0910    13.5930 ca         1 DFJ      -0.119000
     31 C48         20.1050    28.0610    12.6900 ca         1 DFJ      -0.125000
     32 C49         20.3440    29.1600    11.8490 ca         1 DFJ      -0.119000
     33 C50         19.5150    30.2920    11.9180 ca         1 DFJ      -0.103000
     34 C56         24.2900    30.3870    16.4320 ca         1 DFJ      -0.118000
     35 C57         25.5230    30.5840    17.0780 ca         1 DFJ      -0.075500
     36 C58         25.5950    31.3120    18.2850 ca         1 DFJ      -0.033300
     37 C59         24.4030    31.8280    18.8360 ca         1 DFJ      -0.075500
     38 C60         23.1700    31.6300    18.1900 ca         1 DFJ      -0.118000
     39 C65         26.9430    31.5330    18.9880 c3         1 DFJ      -0.048700
     40 F66         26.9570    32.7210    19.6490 f          1 DFJ      -0.163000
     41 F67         27.9540    31.6160    18.0820 f          1 DFJ      -0.163000
     42 P68         27.3600    30.1530    20.2250 p5         1 DFJ       1.268500
     43 O69         28.6810    30.4340    20.8690 o          1 DFJ      -0.902833
     44 O70         27.4320    28.8400    19.5150 o          1 DFJ      -0.902833
     45 O71         26.3060    30.0860    21.2830 o          1 DFJ      -0.902833
     46 C7          17.5740    31.5850    12.9350 c3         1 DFJ      -0.049100
     47 H1          14.7110    36.1090    10.0850 ha         1 DFJ       0.128500
     48 H3          10.9180    34.4330    11.3210 ha         1 DFJ       0.128500
     49 H4          11.8550    33.9690    13.5580 ha         1 DFJ       0.078000
     50 H6          15.6420    35.6440    12.3240 ha         1 DFJ       0.078000
     51 H201        13.5880    34.3990    15.2170 hc         1 DFJ       0.051700
     52 H202        15.0550    35.3160    14.7680 hc         1 DFJ       0.051700
     53 H25         16.9210    34.2750    14.3880 hn         1 DFJ       0.326500
     54 H26         17.2380    31.4550    15.0810 h1         1 DFJ       0.082700
     55 H31         19.5850    30.7800    14.9130 hn         1 DFJ       0.317500
     56 H32         21.2030    32.7920    16.3330 h1         1 DFJ       0.097700
     57 H351        21.8420    29.8940    15.5430 hc         1 DFJ       0.033700
     58 H352        21.0260    30.3700    17.0200 hc         1 DFJ       0.033700
     59 H401        22.6650    32.1300    12.4920 hn         1 DFJ       0.300500
     60 H402        21.3880    31.1140    13.1390 hn         1 DFJ       0.300500
     61 H46         17.3660    29.2310    14.3610 ha         1 DFJ       0.119500
     62 H47         18.8400    27.2370    14.2400 ha         1 DFJ       0.106000
     63 H48         20.7480    27.1850    12.6380 ha         1 DFJ       0.103000
     64 H49         21.1720    29.1340    11.1440 ha         1 DFJ       0.106000
     65 H50         19.7120    31.1390    11.2630 ha         1 DFJ       0.119500
     66 H56         24.2580    29.8260    15.5020 ha         1 DFJ       0.075000
     67 H57         26.4240    30.1660    16.6360 ha         1 DFJ       0.128000
     68 H59         24.4270    32.3830    19.7710 ha         1 DFJ       0.128000
     69 H60         22.2630    32.0370    18.6310 ha         1 DFJ       0.075000
     70 H7C1        17.9050    32.3470    12.2180 hc         1 DFJ       0.067700
     71 H7C2        16.5510    31.3230    12.6410 hc         1 DFJ       0.067700
@<TRIPOS>BOND
     1     1     2 ar  
     2     1     6 ar  
     3     1    47 1   
     4     2     3 ar  
     5     2     7 1   
     6     3     4 ar  
     7     3    48 1   
     8     4     5 ar  
     9     4    49 1   
    10     5     6 ar  
    11     5    14 1   
    12     6    50 1   
    13     7     8 1   
    14     7     9 1   
    15     7    10 1   
    16     8    11 1   
    17     8    12 1   
    18     8    13 1   
    19    14    15 1   
    20    14    51 1   
    21    14    52 1   
    22    15    16 2   
    23    15    17 1   
    24    17    18 1   
    25    17    53 1   
    26    18    19 1   
    27    18    46 1   
    28    18    54 1   
    29    19    20 2   
    30    19    21 1   
    31    21    22 1   
    32    21    55 1   
    33    22    23 1   
    34    22    25 1   
    35    22    56 1   
    36    23    24 2   
    37    23    27 1   
    38    25    26 1   
    39    25    57 1   
    40    25    58 1   
    41    26    34 ar  
    42    26    38 ar  
    43    27    59 1   
    44    27    60 1   
    45    28    29 ar  
    46    28    33 ar  
    47    28    46 1   
    48    29    30 ar  
    49    29    61 1   
    50    30    31 ar  
    51    30    62 1   
    52    31    32 ar  
    53    31    63 1   
    54    32    33 ar  
    55    32    64 1   
    56    33    65 1   
    57    34    35 ar  
    58    34    66 1   
    59    35    36 ar  
    60    35    67 1   
    61    36    37 ar  
    62    36    39 1   
    63    37    38 ar  
    64    37    68 1   
    65    38    69 1   
    66    39    40 1   
    67    39    41 1   
    68    39    42 1   
    69    42    43 1   
    70    42    44 1   
    71    42    45 1   
    72    46    70 1   
    73    46    71 1   
@<TRIPOS>SUBSTRUCTURE
     1 DFJ         1 TEMP              0 ****  ****    0 ROOT
