@<TRIPOS>MOLECULE
DFJ
   71    73     1     0     0
SMALL
bcc


@<TRIPOS>ATOM
      1 C1          13.2390    35.2990    10.9000 ca         1 DFJ      -0.098500
      2 C2          12.0420    35.2560    11.6110 ca         1 DFJ      -0.035300
      3 C3          12.1030    35.1710    13.0000 ca         1 DFJ      -0.098500
      4 C4          13.3240    35.1090    13.6570 ca         1 DFJ      -0.136000
      5 C5          14.5200    35.1390    12.9470 ca         1 DFJ      -0.137300
      6 C6          14.4570    35.2350    11.5600 ca         1 DFJ      -0.136000
      7 C11         10.7250    35.3350    10.8980 c3         1 DFJ       0.353700
      8 P12         10.0730    37.0850    10.5390 p5         1 DFJ       1.110700
      9 F13          9.7990    34.6320    11.6450 f          1 DFJ      -0.284300
     10 F14         10.8210    34.6130     9.7210 f          1 DFJ      -0.284300
     11 O15          8.7220    36.8310     9.8760 o          1 DFJ      -0.902167
     12 O16         11.1440    37.6630     9.6180 o          1 DFJ      -0.902167
     13 O17         10.0030    37.6940    11.9360 o          1 DFJ      -0.902167
     14 C20         15.8500    35.0530    13.6450 c3         1 DFJ      -0.085100
     15 C21         16.3690    33.6230    13.6720 c          1 DFJ       0.674100
     16 O24         15.7010    32.7060    14.1220 o          1 DFJ      -0.608100
     17 N25         17.6050    33.4590    13.1590 ns         1 DFJ      -0.580900
     18 C26         18.2990    32.1930    13.0950 c3         1 DFJ       0.039700
     19 C27         19.6960    32.3800    13.6830 c          1 DFJ       0.645100
     20 O30         20.4680    33.2090    13.2290 o          1 DFJ      -0.604100
     21 N31         20.0080    31.5970    14.7280 ns         1 DFJ      -0.570900
     22 C32         21.2650    31.7410    15.4320 c3         1 DFJ       0.021700
     23 C33         22.4690    31.4300    14.5430 c          1 DFJ       0.679100
     24 O34         23.4970    32.0790    14.6260 o          1 DFJ      -0.578100
     25 C35         21.2570    30.8230    16.6680 c3         1 DFJ      -0.014100
     26 C37         22.5080    30.9610    17.4920 ca         1 DFJ      -0.144300
     27 N40         22.3240    30.3610    13.7470 nt         1 DFJ      -0.675000
     28 C43         19.2490    30.4680    11.4960 ca         1 DFJ      -0.068300
     29 C46         18.9140    29.2800    12.1450 ca         1 DFJ      -0.121000
     30 C47         19.7190    28.1550    12.0260 ca         1 DFJ      -0.137000
     31 C48         20.8710    28.1980    11.2490 ca         1 DFJ      -0.143000
     32 C49         21.2130    29.3750    10.5980 ca         1 DFJ      -0.137000
     33 C50         20.4090    30.5010    10.7270 ca         1 DFJ      -0.121000
     34 C56         23.5150    30.0030    17.4530 ca         1 DFJ      -0.136000
     35 C57         24.6950    30.1750    18.1670 ca         1 DFJ      -0.093500
     36 C58         24.9000    31.3140    18.9390 ca         1 DFJ      -0.033300
     37 C59         23.8790    32.2610    19.0020 ca         1 DFJ      -0.093500
     38 C60         22.7070    32.0880    18.2830 ca         1 DFJ      -0.136000
     39 C65         26.1730    31.5080    19.7090 c3         1 DFJ       0.351700
     40 F66         26.4680    32.8600    19.7230 f          1 DFJ      -0.284300
     41 F67         27.2130    30.9570    18.9780 f          1 DFJ      -0.284300
     42 P68         26.1740    30.8210    21.4790 p5         1 DFJ       1.110700
     43 O69         27.5660    31.1710    22.0020 o          1 DFJ      -0.902833
     44 O70         25.9210    29.3310    21.2710 o          1 DFJ      -0.902833
     45 O71         25.0300    31.5910    22.1320 o          1 DFJ      -0.902833
     46 C7          18.3940    31.6970    11.6450 c3         1 DFJ      -0.049100
     47 H1          13.2290    35.3730     9.8220 ha         1 DFJ       0.146500
     48 H3          11.1950    35.1480    13.5870 ha         1 DFJ       0.146500
     49 H4          13.3460    35.0430    14.7380 ha         1 DFJ       0.096000
     50 H6          15.3750    35.2690    10.9840 ha         1 DFJ       0.096000
     51 H201        15.7530    35.3810    14.6830 hc         1 DFJ       0.051700
     52 H202        16.5680    35.7230    13.1690 hc         1 DFJ       0.051700
     53 H25         18.0760    34.2570    12.7630 hn         1 DFJ       0.326500
     54 H26         17.7290    31.4770    13.6890 h1         1 DFJ       0.082700
     55 H31         19.3150    30.9640    15.0940 hn         1 DFJ       0.317500
     56 H32         21.3830    32.7750    15.7670 h1         1 DFJ       0.097700
     57 H351        21.1180    29.7870    16.3510 hc         1 DFJ       0.033700
     58 H352        20.3860    31.0940    17.2700 hc         1 DFJ       0.033700
     59 H401        23.0590    30.1040    13.1090 hn         1 DFJ       0.300500
     60 H402        21.4350    29.9020    13.6280 hn         1 DFJ       0.300500
     61 H46         18.0140    29.2290    12.7480 ha         1 DFJ       0.137500
     62 H47         19.4450    27.2420    12.5380 ha         1 DFJ       0.124000
     63 H48         21.4980    27.3210    11.1580 ha         1 DFJ       0.121000
     64 H49         22.1130    29.4230    10.0010 ha         1 DFJ       0.124000
     65 H50         20.6900    31.4190    10.2260 ha         1 DFJ       0.137500
     66 H56         23.3820    29.1100    16.8540 ha         1 DFJ       0.093000
     67 H57         25.4530    29.4060    18.1130 ha         1 DFJ       0.146000
     68 H59         23.9910    33.1470    19.6100 ha         1 DFJ       0.146000
     69 H60         21.9300    32.8410    18.3500 ha         1 DFJ       0.093000
     70 H7C1        18.7900    32.5020    11.0230 hc         1 DFJ       0.067700
     71 H7C2        17.3770    31.4990    11.2980 hc         1 DFJ       0.067700
@<TRIPOS>BOND
     1     1     2 ar  
     2     1     6 ar  
     3     1    47 1   
     4     2     3 ar  
     5     2     7 1   
     6     3     4 ar  
     7     3    48 1   
     8     4     5 ar  
     9     4    49 1   
    10     5     6 ar  
    11     5    14 1   
    12     6    50 1   
    13     7     8 1   
    14     7     9 1   
    15     7    10 1   
    16     8    11 1   
    17     8    12 1   
    18     8    13 1   
    19    14    15 1   
    20    14    51 1   
    21    14    52 1   
    22    15    16 2   
    23    15    17 1   
    24    17    18 1   
    25    17    53 1   
    26    18    19 1   
    27    18    46 1   
    28    18    54 1   
    29    19    20 2   
    30    19    21 1   
    31    21    22 1   
    32    21    55 1   
    33    22    23 1   
    34    22    25 1   
    35    22    56 1   
    36    23    24 2   
    37    23    27 1   
    38    25    26 1   
    39    25    57 1   
    40    25    58 1   
    41    26    34 ar  
    42    26    38 ar  
    43    27    59 1   
    44    27    60 1   
    45    28    29 ar  
    46    28    33 ar  
    47    28    46 1   
    48    29    30 ar  
    49    29    61 1   
    50    30    31 ar  
    51    30    62 1   
    52    31    32 ar  
    53    31    63 1   
    54    32    33 ar  
    55    32    64 1   
    56    33    65 1   
    57    34    35 ar  
    58    34    66 1   
    59    35    36 ar  
    60    35    67 1   
    61    36    37 ar  
    62    36    39 1   
    63    37    38 ar  
    64    37    68 1   
    65    38    69 1   
    66    39    40 1   
    67    39    41 1   
    68    39    42 1   
    69    42    43 1   
    70    42    44 1   
    71    42    45 1   
    72    46    70 1   
    73    46    71 1   
@<TRIPOS>SUBSTRUCTURE
     1 DFJ         1 TEMP              0 ****  ****    0 ROOT
