@<TRIPOS>MOLECULE
DFL
   30    32     1     0     0
SMALL
No Charge or Current Charge


@<TRIPOS>ATOM
      1 C1           1.9880     0.3930    -4.0250 ca         1 DFL      -0.048000
      2 C2           0.8150     0.0640    -4.7250 ca         1 DFL      -0.162000
      3 C3          -0.3770    -0.1980    -4.0280 ca         1 DFL      -0.017000
      4 C4          -0.3990    -0.1290    -2.6190 ca         1 DFL      -0.267600
      5 C5           0.7740     0.2210    -1.9220 ca         1 DFL       0.182100
      6 C6           1.9640     0.4680    -2.6220 ca         1 DFL      -0.160000
      7 C7          -1.6450    -0.4350    -1.8480 c          1 DFL       0.593700
      8 C8          -1.4680    -0.6030    -0.3490 c6         1 DFL      -0.215400
      9 C9          -0.4690     0.4450     0.1570 c6         1 DFL       0.237600
     10 O1           0.7810     0.3180    -0.5480 os         1 DFL      -0.340100
     11 C10         -0.1990     0.3240     1.6610 ca         1 DFL      -0.134300
     12 C11          0.5000    -0.7870     2.1780 ca         1 DFL      -0.045000
     13 C12          0.7400    -0.8920     3.5600 ca         1 DFL      -0.180000
     14 C13          0.2830     0.1100     4.4300 ca         1 DFL       0.152100
     15 C14         -0.4120     1.2160     3.9220 ca         1 DFL      -0.180000
     16 C15         -0.6540     1.3260     2.5410 ca         1 DFL      -0.045000
     17 O2          -2.7470    -0.5030    -2.3750 o          1 DFL      -0.519100
     18 O4           0.5110     0.0150     5.7700 oh         1 DFL      -0.530100
     19 H1           2.9100     0.5910    -4.5660 ha         1 DFL       0.116000
     20 H2           0.8310     0.0070    -5.8120 ha         1 DFL       0.121000
     21 H3          -1.2760    -0.4630    -4.5840 ha         1 DFL       0.132000
     22 H6           2.8670     0.7280    -2.0750 ha         1 DFL       0.132000
     23 H81         -1.0030    -1.5840    -0.1920 hc         1 DFL       0.085200
     24 H82         -2.4360    -0.5720     0.1660 hc         1 DFL       0.085200
     25 H9          -0.8740     1.4460    -0.0550 h1         1 DFL       0.056700
     26 H11          0.8600    -1.5660     1.5100 ha         1 DFL       0.118000
     27 H12          1.2800    -1.7540     3.9440 ha         1 DFL       0.124000
     28 H14         -0.7650     1.9910     4.5970 ha         1 DFL       0.124000
     29 H15         -1.1950     2.1890     2.1590 ha         1 DFL       0.118000
     30 HO4          1.0060    -0.8150     5.9420 ho         1 DFL       0.467000
@<TRIPOS>BOND
     1     1     2 ar  
     2     1     6 ar  
     3     1    19 1   
     4     2     3 ar  
     5     2    20 1   
     6     3     4 ar  
     7     3    21 1   
     8     4     5 ar  
     9     4     7 1   
    10     5     6 ar  
    11     5    10 1   
    12     6    22 1   
    13     7     8 1   
    14     7    17 2   
    15     8     9 1   
    16     8    23 1   
    17     8    24 1   
    18     9    10 1   
    19     9    11 1   
    20     9    25 1   
    21    11    12 ar  
    22    11    16 ar  
    23    12    13 ar  
    24    12    26 1   
    25    13    14 ar  
    26    13    27 1   
    27    14    15 ar  
    28    14    18 1   
    29    15    16 ar  
    30    15    28 1   
    31    16    29 1   
    32    18    30 1   
@<TRIPOS>SUBSTRUCTURE
     1 DFL         1 TEMP              0 ****  ****    0 ROOT
