@<TRIPOS>MOLECULE
DFL
   30    32     1     0     0
SMALL
abcg2


@<TRIPOS>ATOM
      1 C1           1.9310     0.4590    -3.9660 ca         1 DFL      -0.048000
      2 C2           0.7710     0.1370    -4.6730 ca         1 DFL      -0.162000
      3 C3          -0.3810    -0.1610    -3.9780 ca         1 DFL      -0.017000
      4 C4          -0.4020    -0.1400    -2.5790 ca         1 DFL      -0.267600
      5 C5           0.7650     0.2040    -1.8840 ca         1 DFL       0.182100
      6 C6           1.9350     0.4960    -2.5850 ca         1 DFL      -0.160000
      7 C7          -1.6080    -0.5390    -1.8370 c          1 DFL       0.593700
      8 C8          -1.4320    -0.6140    -0.3430 c6         1 DFL      -0.215400
      9 C9          -0.4270     0.4170     0.1440 c6         1 DFL       0.237600
     10 O1           0.8190     0.2630    -0.5430 os         1 DFL      -0.340100
     11 C10         -0.1570     0.3150     1.6140 ca         1 DFL      -0.134300
     12 C11          0.4620    -0.8100     2.1550 ca         1 DFL      -0.045000
     13 C12          0.6820    -0.9160     3.5180 ca         1 DFL      -0.180000
     14 C13          0.2770     0.1080     4.3730 ca         1 DFL       0.152100
     15 C14         -0.3420     1.2370     3.8440 ca         1 DFL      -0.180000
     16 C15         -0.5480     1.3320     2.4770 ca         1 DFL      -0.045000
     17 O2          -2.6500    -0.8290    -2.3870 o          1 DFL      -0.519100
     18 O4           0.4620     0.0570     5.7060 oh         1 DFL      -0.530100
     19 H1           2.8410     0.6940    -4.5020 ha         1 DFL       0.116000
     20 H2           0.7800     0.1170    -5.7540 ha         1 DFL       0.121000
     21 H3          -1.2850    -0.4280    -4.5110 ha         1 DFL       0.132000
     22 H6           2.8320     0.7610    -2.0410 ha         1 DFL       0.132000
     23 H81         -1.0880    -1.6260    -0.0950 hc         1 DFL       0.085200
     24 H82         -2.3890    -0.4670     0.1580 hc         1 DFL       0.085200
     25 H9          -0.8150     1.4190    -0.0830 h1         1 DFL       0.056700
     26 H11          0.7830    -1.6220     1.5140 ha         1 DFL       0.118000
     27 H12          1.1670    -1.8000     3.9160 ha         1 DFL       0.124000
     28 H14         -0.6570     2.0380     4.5010 ha         1 DFL       0.124000
     29 H15         -1.0230     2.2200     2.0780 ha         1 DFL       0.118000
     30 HO4          0.8860    -0.7710     5.9560 ho         1 DFL       0.467000
@<TRIPOS>BOND
     1     1     2 ar  
     2     1     6 ar  
     3     1    19 1   
     4     2     3 ar  
     5     2    20 1   
     6     3     4 ar  
     7     3    21 1   
     8     4     5 ar  
     9     4     7 1   
    10     5     6 ar  
    11     5    10 1   
    12     6    22 1   
    13     7     8 1   
    14     7    17 2   
    15     8     9 1   
    16     8    23 1   
    17     8    24 1   
    18     9    10 1   
    19     9    11 1   
    20     9    25 1   
    21    11    12 ar  
    22    11    16 ar  
    23    12    13 ar  
    24    12    26 1   
    25    13    14 ar  
    26    13    27 1   
    27    14    15 ar  
    28    14    18 1   
    29    15    16 ar  
    30    15    28 1   
    31    16    29 1   
    32    18    30 1   
@<TRIPOS>SUBSTRUCTURE
     1 DFL         1 TEMP              0 ****  ****    0 ROOT
