@<TRIPOS>MOLECULE
DFM
   55    56     1     0     0
SMALL
abcg2


@<TRIPOS>ATOM
      1 C1          -2.7290     2.3520    -3.9840 c3         1 DFM      -0.066700
      2 O6          -5.0120     1.0190    -4.5530 o          1 DFM      -0.883500
      3 O7          -2.8680    -0.3320    -4.0730 o          1 DFM      -0.883500
      4 O9          -4.0830     0.9310    -2.1690 o          1 DFM      -0.883500
      5 C11         -1.5270     2.4270    -3.1030 ca         1 DFM      -0.068300
      6 C12         -0.3430     1.7950    -3.4680 ca         1 DFM      -0.080500
      7 C13          0.7250     1.7350    -2.5880 ca         1 DFM      -0.117500
      8 C14          0.6280     2.2760    -1.3100 ca         1 DFM      -0.131300
      9 C15         -0.5430     2.9390    -0.9650 ca         1 DFM      -0.117500
     10 C16         -1.6070     3.0200    -1.8490 ca         1 DFM      -0.080500
     11 C21          1.6990     2.0400    -0.2860 c3         1 DFM      -0.025100
     12 C22          1.6840     0.5590     0.1710 c3         1 DFM       0.039700
     13 C25          2.5390     0.4170     1.4260 c          1 DFM       0.587100
     14 O26          2.0450     0.4250     2.5430 o          1 DFM      -0.604100
     15 N27          3.8560     0.3420     1.1950 nt         1 DFM      -0.622000
     16 N45          0.3550     0.0810     0.4260 ns         1 DFM      -0.498900
     17 C47         -0.3060    -0.7370    -0.4160 c          1 DFM       0.596100
     18 C48         -1.7680    -0.9940    -0.0160 c3         1 DFM       0.051700
     19 O49          0.2090    -1.2640    -1.3880 o          1 DFM      -0.613100
     20 N51         -2.5570     0.2180    -0.0460 ns         1 DFM      -0.493900
     21 C4          -2.4100    -2.0590    -0.9080 c3         1 DFM      -0.048100
     22 C5          -3.7090    -2.5520    -0.3330 ca         1 DFM      -0.052300
     23 C30         -3.7220    -3.6460     0.5310 ca         1 DFM      -0.097000
     24 C31         -4.9080    -4.1020     1.0930 ca         1 DFM      -0.132000
     25 C6          -6.1060    -3.4660     0.7970 ca         1 DFM      -0.142000
     26 C33         -6.1060    -2.3760    -0.0640 ca         1 DFM      -0.132000
     27 C34         -4.9180    -1.9220    -0.6240 ca         1 DFM      -0.097000
     28 C67         -2.6520     1.0340     1.0030 c          1 DFM       0.589100
     29 O70         -2.0050     0.8830     2.0470 o          1 DFM      -0.733100
     30 C71         -3.6300     2.1710     0.8600 c3         1 DFM      -0.173100
     31 F66         -3.4890     3.4930    -3.8140 f          1 DFM      -0.153000
     32 F67         -2.3310     2.3950    -5.3070 f          1 DFM      -0.153000
     33 P68         -3.7820     0.8160    -3.6770 p5         1 DFM       1.292500
     34 H12         -0.2520     1.3260    -4.4390 ha         1 DFM       0.128000
     35 H16         -2.5140     3.5170    -1.5340 ha         1 DFM       0.128000
     36 H13          1.6310     1.2230    -2.8910 ha         1 DFM       0.085500
     37 H15         -0.6380     3.3730     0.0240 ha         1 DFM       0.085500
     38 H211         2.6910     2.2730    -0.6800 hc         1 DFM       0.029700
     39 H212         1.5370     2.6930     0.5750 hc         1 DFM       0.029700
     40 H22          2.1060    -0.0500    -0.6290 h1         1 DFM       0.079700
     41 H45         -0.1530     0.4580     1.2190 hn         1 DFM       0.362500
     42 H271         4.5100     0.2940     1.9590 hn         1 DFM       0.299500
     43 H272         4.2290     0.2910     0.2620 hn         1 DFM       0.299500
     44 H48         -1.7500    -1.3650     1.0150 h1         1 DFM       0.050700
     45 H51         -3.0770     0.4610    -0.9250 hn         1 DFM       0.434500
     46 H4C1        -1.7160    -2.8960    -1.0000 hc         1 DFM       0.094200
     47 H4C2        -2.5530    -1.6470    -1.9110 hc         1 DFM       0.094200
     48 H30         -2.7920    -4.1520     0.7640 ha         1 DFM       0.143500
     49 H34         -4.9200    -1.0640    -1.2870 ha         1 DFM       0.143500
     50 H31         -4.8950    -4.9550     1.7600 ha         1 DFM       0.091500
     51 H6          -7.0340    -3.8180     1.2310 ha         1 DFM       0.080000
     52 H33         -7.0360    -1.8740    -0.3000 ha         1 DFM       0.091500
     53 H711        -3.1320     3.1170     1.0710 hc         1 DFM       0.058033
     54 H712        -4.0780     2.2150    -0.1300 hc         1 DFM       0.058033
     55 H713        -4.4220     2.0530     1.6020 hc         1 DFM       0.058033
@<TRIPOS>BOND
     1     1     5 1   
     2     1    31 1   
     3     1    32 1   
     4     1    33 1   
     5     2    33 1   
     6     3    33 1   
     7     4    33 1   
     8     5     6 ar  
     9     5    10 ar  
    10     6     7 ar  
    11     6    34 1   
    12     7     8 ar  
    13     7    36 1   
    14     8     9 ar  
    15     8    11 1   
    16     9    10 ar  
    17     9    37 1   
    18    10    35 1   
    19    11    12 1   
    20    11    38 1   
    21    11    39 1   
    22    12    13 1   
    23    12    16 1   
    24    12    40 1   
    25    13    14 2   
    26    13    15 1   
    27    15    42 1   
    28    15    43 1   
    29    16    17 1   
    30    16    41 1   
    31    17    18 1   
    32    17    19 2   
    33    18    20 1   
    34    18    21 1   
    35    18    44 1   
    36    20    28 1   
    37    20    45 1   
    38    21    22 1   
    39    21    46 1   
    40    21    47 1   
    41    22    23 ar  
    42    22    27 ar  
    43    23    24 ar  
    44    23    48 1   
    45    24    25 ar  
    46    24    50 1   
    47    25    26 ar  
    48    25    51 1   
    49    26    27 ar  
    50    26    52 1   
    51    27    49 1   
    52    28    29 2   
    53    28    30 1   
    54    30    53 1   
    55    30    54 1   
    56    30    55 1   
@<TRIPOS>SUBSTRUCTURE
     1 DFM         1 TEMP              0 ****  ****    0 ROOT
