@<TRIPOS>MOLECULE
DFM
   55    56     1     0     0
SMALL
No Charge or Current Charge


@<TRIPOS>ATOM
      1 C1          -2.8700     2.5260    -3.9510 c3         1 DFM      -0.066700
      2 O6          -5.4040     1.3710    -3.9770 o          1 DFM      -0.883500
      3 O7          -3.5270    -0.1590    -4.2650 o          1 DFM      -0.883500
      4 O9          -3.9760     0.8110    -2.0710 o          1 DFM      -0.883500
      5 C11         -1.6000     2.4920    -3.0930 ca         1 DFM      -0.068300
      6 C12         -0.5480     1.6140    -3.4230 ca         1 DFM      -0.080500
      7 C13          0.5690     1.4920    -2.5810 ca         1 DFM      -0.117500
      8 C14          0.6440     2.2330    -1.3870 ca         1 DFM      -0.131300
      9 C15         -0.3840     3.1390    -1.0740 ca         1 DFM      -0.117500
     10 C16         -1.4950     3.2720    -1.9220 ca         1 DFM      -0.080500
     11 C21          1.7850     1.9960    -0.4020 c3         1 DFM      -0.025100
     12 C22          1.8280     0.5390     0.1380 c3         1 DFM       0.039700
     13 C25          2.7440     0.4000     1.3920 c          1 DFM       0.587100
     14 O26          2.3750    -0.0530     2.4650 o          1 DFM      -0.604100
     15 N27          4.0240     0.8230     1.2540 nt         1 DFM      -0.622000
     16 N45          0.4630     0.0140     0.4000 ns         1 DFM      -0.498900
     17 C47         -0.1730    -0.9650    -0.3320 c          1 DFM       0.596100
     18 C48         -1.6700    -1.2060     0.0430 c3         1 DFM       0.051700
     19 O49          0.4060    -1.5840    -1.2180 o          1 DFM      -0.613100
     20 N51         -2.4380     0.0610     0.0930 ns         1 DFM      -0.493900
     21 C4          -2.3720    -2.2570    -0.8550 c3         1 DFM      -0.048100
     22 C5          -3.7680    -2.6320    -0.3610 ca         1 DFM      -0.052300
     23 C30         -3.9300    -3.2790     0.8820 ca         1 DFM      -0.097000
     24 C31         -5.2130    -3.6320     1.3370 ca         1 DFM      -0.132000
     25 C6          -6.3420    -3.3440     0.5540 ca         1 DFM      -0.142000
     26 C33         -6.1880    -2.7060    -0.6870 ca         1 DFM      -0.132000
     27 C34         -4.9060    -2.3520    -1.1440 ca         1 DFM      -0.097000
     28 C67         -2.4530     0.9290     1.1510 c          1 DFM       0.589100
     29 O70         -1.6990     0.7960     2.1040 o          1 DFM      -0.733100
     30 C71         -3.4550     2.0710     1.0530 c3         1 DFM      -0.173100
     31 F66         -3.5650     3.6800    -3.7670 f          1 DFM      -0.153000
     32 F67         -2.5640     2.4950    -5.2750 f          1 DFM      -0.153000
     33 P68         -4.0070     1.0600    -3.5440 p5         1 DFM       1.292500
     34 H12         -0.6120     0.9970    -4.3160 ha         1 DFM       0.128000
     35 H16         -2.2920     3.9560    -1.6420 ha         1 DFM       0.128000
     36 H13          1.3550     0.7850    -2.8360 ha         1 DFM       0.085500
     37 H15         -0.3440     3.7180    -0.1550 ha         1 DFM       0.085500
     38 H211         2.7440     2.2380    -0.8760 hc         1 DFM       0.029700
     39 H212         1.6850     2.6800     0.4510 hc         1 DFM       0.029700
     40 H22          2.2930    -0.0810    -0.6380 h1         1 DFM       0.079700
     41 H45         -0.1030     0.4480     1.1290 hn         1 DFM       0.362500
     42 H271         4.6530     0.7550     2.0400 hn         1 DFM       0.299500
     43 H272         4.3420     1.2010     0.3730 hn         1 DFM       0.299500
     44 H48         -1.6470    -1.6110     1.0620 h1         1 DFM       0.050700
     45 H51         -3.0620     0.2970    -0.6920 hn         1 DFM       0.434500
     46 H4C1        -1.7540    -3.1620    -0.8930 hc         1 DFM       0.094200
     47 H4C2        -2.4110    -1.8760    -1.8840 hc         1 DFM       0.094200
     48 H30         -3.0620    -3.5110     1.4950 ha         1 DFM       0.143500
     49 H34         -4.7990    -1.8570    -2.1070 ha         1 DFM       0.143500
     50 H31         -5.3300    -4.1290     2.2980 ha         1 DFM       0.091500
     51 H6          -7.3340    -3.6170     0.9060 ha         1 DFM       0.080000
     52 H33         -7.0610    -2.4830    -1.2960 ha         1 DFM       0.091500
     53 H711        -3.3910     2.7640     1.8990 hc         1 DFM       0.058033
     54 H712        -3.3310     2.5850     0.0950 hc         1 DFM       0.058033
     55 H713        -4.4600     1.6470     0.9570 hc         1 DFM       0.058033
@<TRIPOS>BOND
     1     1     5 1   
     2     1    31 1   
     3     1    32 1   
     4     1    33 1   
     5     2    33 1   
     6     3    33 1   
     7     4    33 1   
     8     5     6 ar  
     9     5    10 ar  
    10     6     7 ar  
    11     6    34 1   
    12     7     8 ar  
    13     7    36 1   
    14     8     9 ar  
    15     8    11 1   
    16     9    10 ar  
    17     9    37 1   
    18    10    35 1   
    19    11    12 1   
    20    11    38 1   
    21    11    39 1   
    22    12    13 1   
    23    12    16 1   
    24    12    40 1   
    25    13    14 2   
    26    13    15 1   
    27    15    42 1   
    28    15    43 1   
    29    16    17 1   
    30    16    41 1   
    31    17    18 1   
    32    17    19 2   
    33    18    20 1   
    34    18    21 1   
    35    18    44 1   
    36    20    28 1   
    37    20    45 1   
    38    21    22 1   
    39    21    46 1   
    40    21    47 1   
    41    22    23 ar  
    42    22    27 ar  
    43    23    24 ar  
    44    23    48 1   
    45    24    25 ar  
    46    24    50 1   
    47    25    26 ar  
    48    25    51 1   
    49    26    27 ar  
    50    26    52 1   
    51    27    49 1   
    52    28    29 2   
    53    28    30 1   
    54    30    53 1   
    55    30    54 1   
    56    30    55 1   
@<TRIPOS>SUBSTRUCTURE
     1 DFM         1 TEMP              0 ****  ****    0 ROOT
