@<TRIPOS>MOLECULE
DFN
   50    53     1     0     0
SMALL
abcg2


@<TRIPOS>ATOM
      1 C28         -2.2300     3.4150    -1.8320 c3         1 DFN       0.059900
      2 N22         -2.5430     2.1390    -1.2340 na         1 DFN      -0.070700
      3 C48         -1.6910     1.1060    -1.0750 cc         1 DFN      -0.099100
      4 C21         -3.7700     1.7820    -0.7340 ca         1 DFN      -0.078200
      5 C24         -4.9410     2.5290    -0.6570 ca         1 DFN      -0.095000
      6 C31         -6.0450     1.9390    -0.0740 ca         1 DFN      -0.134000
      7 C29         -5.9460     0.6370     0.4180 ca         1 DFN       0.146000
      8 F39         -7.0400     0.1000     0.9950 f          1 DFN      -0.183000
      9 C20         -3.6810     0.4580    -0.2540 ca         1 DFN      -0.035800
     10 C23         -4.8030    -0.1210     0.3490 ca         1 DFN      -0.095000
     11 C19         -2.3280     0.0340    -0.4860 cd         1 DFN      -0.129200
     12 C01         -1.6870    -1.2200    -0.1840 cd         1 DFN      -0.027200
     13 C02         -0.4230    -1.4640     0.2130 cc         1 DFN      -0.118400
     14 C03         -0.2320    -2.9410     0.2850 c          1 DFN       0.572200
     15 O06          0.7560    -3.5450     0.6190 o          1 DFN      -0.485000
     16 N04         -1.4310    -3.5070    -0.0890 ns         1 DFN      -0.491500
     17 C05         -2.3600    -2.5460    -0.4020 c          1 DFN       0.564200
     18 O07         -3.4780    -2.7460    -0.8010 o          1 DFN      -0.477000
     19 C08          0.6330    -0.5230     0.5940 ca         1 DFN      -0.005800
     20 C09          1.9020    -0.6410     0.0470 ca         1 DFN      -0.150000
     21 C10          2.9300     0.2490     0.3950 ca         1 DFN       0.305000
     22 C11          2.6470     1.2510     1.3310 ca         1 DFN      -0.178000
     23 C12          1.3740     1.3590     1.8770 ca         1 DFN      -0.077000
     24 C13          0.3610     0.4880     1.5200 ca         1 DFN      -0.137000
     25 N15          4.1580     0.1270    -0.2080 nu         1 DFN      -0.941200
     26 C26          5.3240     0.7820     0.3300 c3         1 DFN       0.171800
     27 C34          6.5510     0.4500    -0.5120 c3         1 DFN       0.153300
     28 O41          6.7270    -0.9440    -0.6540 oh         1 DFN      -0.642000
     29 C40          7.7760     1.1350     0.0660 c3         1 DFN       0.132600
     30 O45          8.8730     0.9130    -0.7850 oh         1 DFN      -0.642000
     31 H281        -2.8760     3.6080    -2.6880 h1         1 DFN       0.054367
     32 H282        -2.3530     4.2200    -1.1080 h1         1 DFN       0.054367
     33 H283        -1.1980     3.4060    -2.1710 h1         1 DFN       0.054367
     34 H48         -0.6690     1.1800    -1.4130 h4         1 DFN       0.225000
     35 H24         -4.9990     3.5420    -1.0330 ha         1 DFN       0.118000
     36 H31         -6.9790     2.4780     0.0090 ha         1 DFN       0.131000
     37 H23         -4.7890    -1.1240     0.7530 ha         1 DFN       0.144000
     38 H04         -1.6050    -4.5010    -0.1300 hn         1 DFN       0.350500
     39 H09          2.1080    -1.4190    -0.6800 ha         1 DFN       0.123000
     40 H11          3.4130     1.9500     1.6400 ha         1 DFN       0.111000
     41 H12          1.1810     2.1390     2.6020 ha         1 DFN       0.111000
     42 H13         -0.6250     0.5800     1.9550 ha         1 DFN       0.124000
     43 H15          4.3470    -0.7880    -0.5880 hn         1 DFN       0.483000
     44 H261         5.1810     1.8650     0.3140 h1         1 DFN       0.039200
     45 H262         5.5050     0.5020     1.3800 h1         1 DFN       0.039200
     46 H34          6.3830     0.8260    -1.5270 h1         1 DFN       0.098700
     47 H41          6.9420    -1.3180     0.2090 ho         1 DFN       0.440000
     48 H401         7.5550     2.2050     0.1750 h1         1 DFN       0.020700
     49 H402         7.9610     0.7470     1.0790 h1         1 DFN       0.020700
     50 H45          9.6340     1.3690    -0.4160 ho         1 DFN       0.445000
@<TRIPOS>BOND
     1     1     2 1   
     2     1    31 1   
     3     1    32 1   
     4     1    33 1   
     5     2     3 1   
     6     2     4 1   
     7     3    11 2   
     8     3    34 1   
     9     4     5 ar  
    10     4     9 ar  
    11     5     6 ar  
    12     5    35 1   
    13     6     7 ar  
    14     6    36 1   
    15     7     8 1   
    16     7    10 ar  
    17     9    10 ar  
    18     9    11 1   
    19    10    37 1   
    20    11    12 1   
    21    12    13 2   
    22    12    17 1   
    23    13    14 1   
    24    13    19 1   
    25    14    15 2   
    26    14    16 1   
    27    16    17 1   
    28    16    38 1   
    29    17    18 2   
    30    19    20 ar  
    31    19    24 ar  
    32    20    21 ar  
    33    20    39 1   
    34    21    22 ar  
    35    21    25 1   
    36    22    23 ar  
    37    22    40 1   
    38    23    24 ar  
    39    23    41 1   
    40    24    42 1   
    41    25    26 1   
    42    25    43 1   
    43    26    27 1   
    44    26    44 1   
    45    26    45 1   
    46    27    28 1   
    47    27    29 1   
    48    27    46 1   
    49    28    47 1   
    50    29    30 1   
    51    29    48 1   
    52    29    49 1   
    53    30    50 1   
@<TRIPOS>SUBSTRUCTURE
     1 DFN         1 TEMP              0 ****  ****    0 ROOT
