@<TRIPOS>MOLECULE
DFN
   50    53     1     0     0
SMALL
No Charge or Current Charge


@<TRIPOS>ATOM
      1 C28         -1.8310     3.4190    -1.4400 c3         1 DFN       0.059900
      2 N22         -2.2520     2.0980    -0.9520 na         1 DFN      -0.070700
      3 C48         -1.4210     1.0370    -0.5580 cc         1 DFN      -0.099100
      4 C21         -3.5860     1.7400    -0.8490 ca         1 DFN      -0.078200
      5 C24         -4.7300     2.5110    -1.1160 ca         1 DFN      -0.095000
      6 C31         -5.9910     1.9270    -0.8760 ca         1 DFN      -0.134000
      7 C29         -6.0770     0.6160    -0.3610 ca         1 DFN       0.146000
      8 F39         -7.2900     0.0810    -0.1000 f          1 DFN      -0.183000
      9 C20         -3.6690     0.4510    -0.3840 ca         1 DFN      -0.035800
     10 C23         -4.9140    -0.1350    -0.0960 ca         1 DFN      -0.095000
     11 C19         -2.2920     0.0020    -0.2100 cd         1 DFN      -0.129200
     12 C01         -1.7830    -1.3320     0.1100 cd         1 DFN      -0.027200
     13 C02         -0.4770    -1.6060     0.5290 cc         1 DFN      -0.118400
     14 C03         -0.3190    -3.0540     0.7210 c          1 DFN       0.572200
     15 O06          0.6500    -3.6950     1.0940 o          1 DFN      -0.485000
     16 N04         -1.5360    -3.5470     0.4100 ns         1 DFN      -0.491500
     17 C05         -2.4820    -2.6500     0.0390 c          1 DFN       0.564200
     18 O07         -3.6110    -2.9370    -0.3200 o          1 DFN      -0.477000
     19 C08          0.5320    -0.6110     0.8810 ca         1 DFN      -0.005800
     20 C09          1.7620    -0.5820     0.1990 ca         1 DFN      -0.150000
     21 C10          2.7450     0.3630     0.5370 ca         1 DFN       0.305000
     22 C11          2.4930     1.2860     1.5680 ca         1 DFN      -0.178000
     23 C12          1.2720     1.2550     2.2640 ca         1 DFN      -0.077000
     24 C13          0.2970     0.3040     1.9240 ca         1 DFN      -0.137000
     25 N15          3.9500     0.3730    -0.1670 nu         1 DFN      -0.941200
     26 C26          5.2520     0.8740     0.3240 c3         1 DFN       0.171800
     27 C34          6.3810     0.6860    -0.7330 c3         1 DFN       0.153300
     28 O41          6.4340    -0.6820    -1.1930 oh         1 DFN      -0.642000
     29 C40          7.7730     1.0860    -0.1770 c3         1 DFN       0.132600
     30 O45          8.7890     0.8500    -1.1660 oh         1 DFN      -0.642000
     31 H281        -2.2070     3.5720    -2.4590 h1         1 DFN       0.054367
     32 H282        -2.2320     4.2000    -0.7820 h1         1 DFN       0.054367
     33 H283        -0.7360     3.4820    -1.4470 h1         1 DFN       0.054367
     34 H48         -0.3440     1.1040    -0.6360 h4         1 DFN       0.225000
     35 H24         -4.6540     3.5300    -1.4880 ha         1 DFN       0.118000
     36 H31         -6.8990     2.4930    -1.0680 ha         1 DFN       0.131000
     37 H23         -5.0050    -1.1160     0.3490 ha         1 DFN       0.144000
     38 H04         -1.7300    -4.5360     0.4450 hn         1 DFN       0.350500
     39 H09          1.9510    -1.2950    -0.5980 ha         1 DFN       0.123000
     40 H11          3.2380     2.0290     1.8360 ha         1 DFN       0.111000
     41 H12          1.0830     1.9670     3.0640 ha         1 DFN       0.111000
     42 H13         -0.6470     0.2820     2.4650 ha         1 DFN       0.124000
     43 H15          4.0290    -0.3450    -0.8900 hn         1 DFN       0.483000
     44 H261         5.1770     1.9430     0.5680 h1         1 DFN       0.039200
     45 H262         5.5290     0.3410     1.2440 h1         1 DFN       0.039200
     46 H34          6.1580     1.3550    -1.5760 h1         1 DFN       0.098700
     47 H41          7.3420    -0.7860    -1.5570 ho         1 DFN       0.440000
     48 H401         7.7540     2.1480     0.1020 h1         1 DFN       0.020700
     49 H402         7.9830     0.5060     0.7320 h1         1 DFN       0.020700
     50 H45          9.6410     1.1630    -0.7860 ho         1 DFN       0.445000
@<TRIPOS>BOND
     1     1     2 1   
     2     1    31 1   
     3     1    32 1   
     4     1    33 1   
     5     2     3 1   
     6     2     4 1   
     7     3    11 2   
     8     3    34 1   
     9     4     5 ar  
    10     4     9 ar  
    11     5     6 ar  
    12     5    35 1   
    13     6     7 ar  
    14     6    36 1   
    15     7     8 1   
    16     7    10 ar  
    17     9    10 ar  
    18     9    11 1   
    19    10    37 1   
    20    11    12 1   
    21    12    13 2   
    22    12    17 1   
    23    13    14 1   
    24    13    19 1   
    25    14    15 2   
    26    14    16 1   
    27    16    17 1   
    28    16    38 1   
    29    17    18 2   
    30    19    20 ar  
    31    19    24 ar  
    32    20    21 ar  
    33    20    39 1   
    34    21    22 ar  
    35    21    25 1   
    36    22    23 ar  
    37    22    40 1   
    38    23    24 ar  
    39    23    41 1   
    40    24    42 1   
    41    25    26 1   
    42    25    43 1   
    43    26    27 1   
    44    26    44 1   
    45    26    45 1   
    46    27    28 1   
    47    27    29 1   
    48    27    46 1   
    49    28    47 1   
    50    29    30 1   
    51    29    48 1   
    52    29    49 1   
    53    30    50 1   
@<TRIPOS>SUBSTRUCTURE
     1 DFN         1 TEMP              0 ****  ****    0 ROOT
