@<TRIPOS>MOLECULE
DFO
   29    28     1     0     0
SMALL
No Charge or Current Charge


@<TRIPOS>ATOM
      1 N            1.7690     0.4270     1.1880 n8         1 DFO      -0.871800
      2 CA           0.3930    -0.1080     0.9990 c3         1 DFO       0.094500
      3 CB          -0.4690     0.3250     2.2330 c3         1 DFO      -0.105400
      4 CG           0.0680    -0.0850     3.6390 c3         1 DFO      -0.065700
      5 CD1         -0.8360     0.4840     4.7570 c3         1 DFO      -0.086600
      6 CD2          0.2300    -1.6160     3.7970 c3         1 DFO      -0.086600
      7 CH          -0.2420     0.2840    -0.4120 c3         1 DFO       0.345600
      8 OH1         -1.6240    -0.0610    -0.4240 oh         1 DFO      -0.576300
      9 OH2         -0.2240     1.7050    -0.5530 oh         1 DFO      -0.576300
     10 CM           0.4680    -0.4090    -1.6460 c3         1 DFO       0.208600
     11 F1           1.7830    -0.0440    -1.7190 f          1 DFO      -0.259300
     12 F2           0.4800    -1.7660    -1.4600 f          1 DFO      -0.259300
     13 C           -0.2790     0.0010    -2.9790 c          1 DFO       0.934600
     14 O           -0.4500     1.2010    -3.2070 o          1 DFO      -0.791300
     15 OXT         -0.6020    -0.8630    -3.7950 o          1 DFO      -0.791300
     16 H            1.9920     0.4170     2.1850 hn         1 DFO       0.328300
     17 H2           1.7620     1.4190     0.9330 hn         1 DFO       0.328300
     18 HA           0.4660    -1.2030     1.0280 h1         1 DFO       0.066700
     19 HB2         -1.4750    -0.1010     2.1410 hc         1 DFO       0.054700
     20 HB3         -0.5940     1.4150     2.2090 hc         1 DFO       0.054700
     21 HG           1.0570     0.3670     3.7830 hc         1 DFO       0.030700
     22 HD11        -0.4280     0.2430     5.7460 hc         1 DFO       0.029033
     23 HD12        -0.9090     1.5760     4.6800 hc         1 DFO       0.029033
     24 HD13        -1.8480     0.0670     4.6930 hc         1 DFO       0.029033
     25 HD21        -0.7210    -2.1310     3.6160 hc         1 DFO       0.029033
     26 HD22         0.9760    -2.0110     3.0970 hc         1 DFO       0.029033
     27 HD23         0.5660    -1.8670     4.8100 hc         1 DFO       0.029033
     28 HH1         -1.9720     0.1850     0.4560 ho         1 DFO       0.424500
     29 HH2         -0.3090     1.8630    -1.5250 ho         1 DFO       0.424500
@<TRIPOS>BOND
     1     1     2 1   
     2     1    16 1   
     3     1    17 1   
     4     2     3 1   
     5     2     7 1   
     6     2    18 1   
     7     3     4 1   
     8     3    19 1   
     9     3    20 1   
    10     4     5 1   
    11     4     6 1   
    12     4    21 1   
    13     5    22 1   
    14     5    23 1   
    15     5    24 1   
    16     6    25 1   
    17     6    26 1   
    18     6    27 1   
    19     7     8 1   
    20     7     9 1   
    21     7    10 1   
    22     8    28 1   
    23     9    29 1   
    24    10    11 1   
    25    10    12 1   
    26    10    13 1   
    27    13    14 1   
    28    13    15 1   
@<TRIPOS>SUBSTRUCTURE
     1 DFO         1 TEMP              0 ****  ****    0 ROOT
