@<TRIPOS>MOLECULE
DFO
   29    28     1     0     0
SMALL
bcc


@<TRIPOS>ATOM
      1 N            1.7350     0.4950     1.0360 n8         1 DFO      -0.871800
      2 CA           0.3700    -0.0100     1.0110 c3         1 DFO       0.094500
      3 CB          -0.4710     0.4440     2.2100 c3         1 DFO      -0.105400
      4 CG           0.0550    -0.0350     3.5660 c3         1 DFO      -0.065700
      5 CD1         -0.7990     0.5550     4.6840 c3         1 DFO      -0.086600
      6 CD2          0.0890    -1.5570     3.6670 c3         1 DFO      -0.086600
      7 CH          -0.2860     0.3940    -0.3320 c3         1 DFO       0.345600
      8 OH1         -1.6250     0.0050    -0.3750 oh         1 DFO      -0.576300
      9 OH2         -0.3480     1.7760    -0.4680 oh         1 DFO      -0.576300
     10 CM           0.4320    -0.2160    -1.5770 c3         1 DFO       0.208600
     11 F1           1.5420     0.5210    -1.8920 f          1 DFO      -0.259300
     12 F2           0.8970    -1.4610    -1.2650 f          1 DFO      -0.259300
     13 C           -0.4960    -0.2950    -2.8190 c          1 DFO       0.934600
     14 O           -0.6200     0.7680    -3.4430 o          1 DFO      -0.791300
     15 OXT         -1.0100    -1.4000    -3.0400 o          1 DFO      -0.791300
     16 H            2.2850    -0.0280     1.7040 hn         1 DFO       0.328300
     17 H2           1.7420     1.4530     1.3680 hn         1 DFO       0.328300
     18 HA           0.4300    -1.1010     1.0300 h1         1 DFO       0.066700
     19 HB2         -1.5020     0.0950     2.1080 hc         1 DFO       0.054700
     20 HB3         -0.5180     1.5390     2.2140 hc         1 DFO       0.054700
     21 HG           1.0770     0.3370     3.7020 hc         1 DFO       0.030700
     22 HD11        -0.4410     0.2410     5.6660 hc         1 DFO       0.029033
     23 HD12        -0.7890     1.6460     4.6590 hc         1 DFO       0.029033
     24 HD13        -1.8390     0.2330     4.5930 hc         1 DFO       0.029033
     25 HD21        -0.8970    -1.9850     3.4660 hc         1 DFO       0.029033
     26 HD22         0.7910    -2.0060     2.9630 hc         1 DFO       0.029033
     27 HD23         0.3900    -1.8750     4.6670 hc         1 DFO       0.029033
     28 HH1         -1.6990    -0.9340    -0.1730 ho         1 DFO       0.424500
     29 HH2          0.5320     2.1160    -0.6610 ho         1 DFO       0.424500
@<TRIPOS>BOND
     1     1     2 1   
     2     1    16 1   
     3     1    17 1   
     4     2     3 1   
     5     2     7 1   
     6     2    18 1   
     7     3     4 1   
     8     3    19 1   
     9     3    20 1   
    10     4     5 1   
    11     4     6 1   
    12     4    21 1   
    13     5    22 1   
    14     5    23 1   
    15     5    24 1   
    16     6    25 1   
    17     6    26 1   
    18     6    27 1   
    19     7     8 1   
    20     7     9 1   
    21     7    10 1   
    22     8    28 1   
    23     9    29 1   
    24    10    11 1   
    25    10    12 1   
    26    10    13 1   
    27    13    14 1   
    28    13    15 1   
@<TRIPOS>SUBSTRUCTURE
     1 DFO         1 TEMP              0 ****  ****    0 ROOT
