@<TRIPOS>MOLECULE
DFP
   25    24     1     0     0
SMALL
bcc


@<TRIPOS>ATOM
      1 H1           0.3470    -0.8220    -0.5950 c3         1 DFP       0.104000
      2 H2           0.3700    -2.1620     0.1150 c3         1 DFP      -0.234000
      3 H3          -0.1180     0.3040     0.3030 c3         1 DFP      -0.234000
      4 H4           4.4730     0.3640    -1.5320 c3         1 DFP       0.104000
      5 H5           5.1170    -0.6340    -0.5890 c3         1 DFP      -0.234000
      6 H6           5.5010     1.1760    -2.2920 c3         1 DFP      -0.234000
      7 H            2.4120    -1.2390    -2.2380 p5         1 DFP       2.554000
      8 H1P          1.6720    -0.4620    -1.0520 os         1 DFP      -0.756500
      9 H2P          3.6600    -0.2950    -2.5320 os         1 DFP      -0.756500
     10 H3P          1.6100    -1.5010    -3.4550 o          1 DFP      -1.046000
     11 H1          -0.3110    -0.8810    -1.4660 ha         1 DFP       0.095000
     12 H21         -0.6250    -2.3910     0.4960 ha         1 DFP       0.087500
     13 H22          0.6550    -2.9780    -0.5500 ha         1 DFP       0.087500
     14 H23          1.0620    -2.1470     0.9590 ha         1 DFP       0.087500
     15 H31         -1.1290     0.0980     0.6530 ha         1 DFP       0.087500
     16 H32         -0.1350     1.2550    -0.2280 ha         1 DFP       0.087500
     17 H33          0.5280     0.4030     1.1770 ha         1 DFP       0.087500
     18 H4           3.8290     1.0400    -0.9640 ha         1 DFP       0.095000
     19 H2'1         5.7620    -0.1030     0.1120 ha         1 DFP       0.087500
     20 H2'2         4.3860    -1.1830     0.0060 ha         1 DFP       0.087500
     21 H2'3         5.7320    -1.3530    -1.1330 ha         1 DFP       0.087500
     22 H3'1         6.1060     1.7480    -1.5880 ha         1 DFP       0.087500
     23 H3'2         5.0270     1.8810    -2.9750 ha         1 DFP       0.087500
     24 H3'3         6.1690     0.5300    -2.8630 ha         1 DFP       0.087500
     25 HP1          2.9360    -2.4040    -1.6560 ha         1 DFP      -0.508000
@<TRIPOS>BOND
     1     1     2 1   
     2     1     3 1   
     3     1     8 1   
     4     1    11 1   
     5     2    12 1   
     6     2    13 1   
     7     2    14 1   
     8     3    15 1   
     9     3    16 1   
    10     3    17 1   
    11     4     5 1   
    12     4     6 1   
    13     4     9 1   
    14     4    18 1   
    15     5    19 1   
    16     5    20 1   
    17     5    21 1   
    18     6    22 1   
    19     6    23 1   
    20     6    24 1   
    21     7     8 1   
    22     7     9 1   
    23     7    10 2   
    24     7    25 1   
@<TRIPOS>SUBSTRUCTURE
     1 DFP         1 TEMP              0 ****  ****    0 ROOT
