@<TRIPOS>MOLECULE
DFP
   25    24     1     0     0
SMALL
No Charge or Current Charge


@<TRIPOS>ATOM
      1 C1           0.3670    -0.7910    -0.6130 c3         1 DFP       0.238300
      2 C2           1.3810    -0.9400     0.5420 c3         1 DFP      -0.116100
      3 C3          -0.7820     0.1720    -0.2670 c3         1 DFP      -0.116100
      4 C4           4.3800    -0.0760    -1.2490 c3         1 DFP       0.238300
      5 C5           5.0270    -1.4810    -1.2270 c3         1 DFP      -0.116100
      6 C6           5.4130     1.0420    -1.4780 c3         1 DFP      -0.116100
      7 P            2.2190    -1.0290    -2.5310 p5         1 DFP       1.211200
      8 O1P          1.0060    -0.2580    -1.7830 os         1 DFP      -0.617900
      9 O2P          3.4400     0.0180    -2.3300 os         1 DFP      -0.617900
     10 O3P          1.9420    -1.4250    -3.9430 o          1 DFP      -0.546000
     11 H1          -0.0650    -1.7790    -0.8310 h1         1 DFP       0.055700
     12 H21          0.8670    -1.2710     1.4520 hc         1 DFP       0.048200
     13 H22          2.1480    -1.6880     0.3130 hc         1 DFP       0.048200
     14 H23          1.8650     0.0190     0.7620 hc         1 DFP       0.048200
     15 H31         -1.3370    -0.1900     0.6070 hc         1 DFP       0.048200
     16 H32         -1.4830     0.2500    -1.1060 hc         1 DFP       0.048200
     17 H33         -0.3970     1.1730    -0.0400 hc         1 DFP       0.048200
     18 H4           3.8880     0.1070    -0.2850 h1         1 DFP       0.055700
     19 H2'1         5.8520    -1.5050    -0.5050 hc         1 DFP       0.048200
     20 H2'2         4.3090    -2.2510    -0.9260 hc         1 DFP       0.048200
     21 H2'3         5.4340    -1.7400    -2.2120 hc         1 DFP       0.048200
     22 H3'1         6.1580     1.0470    -0.6730 hc         1 DFP       0.048200
     23 H3'2         4.9210     2.0210    -1.4930 hc         1 DFP       0.048200
     24 H3'3         5.9370     0.9000    -2.4310 hc         1 DFP       0.048200
     25 HP1          2.5460    -2.0820    -1.6400 hp         1 DFP      -0.132400
@<TRIPOS>BOND
     1     1     2 1   
     2     1     3 1   
     3     1     8 1   
     4     1    11 1   
     5     2    12 1   
     6     2    13 1   
     7     2    14 1   
     8     3    15 1   
     9     3    16 1   
    10     3    17 1   
    11     4     5 1   
    12     4     6 1   
    13     4     9 1   
    14     4    18 1   
    15     5    19 1   
    16     5    20 1   
    17     5    21 1   
    18     6    22 1   
    19     6    23 1   
    20     6    24 1   
    21     7     8 1   
    22     7     9 1   
    23     7    10 2   
    24     7    25 1   
@<TRIPOS>SUBSTRUCTURE
     1 DFP         1 TEMP              0 ****  ****    0 ROOT
