@<TRIPOS>MOLECULE
DFP
   25    24     1     0     0
SMALL
abcg2


@<TRIPOS>ATOM
      1 C1           0.3470    -0.8220    -0.5950 c3         1 DFP       0.238300
      2 C2           0.3700    -2.1620     0.1150 c3         1 DFP      -0.116100
      3 C3          -0.1180     0.3040     0.3030 c3         1 DFP      -0.116100
      4 C4           4.4730     0.3640    -1.5320 c3         1 DFP       0.238300
      5 C5           5.1170    -0.6340    -0.5890 c3         1 DFP      -0.116100
      6 C6           5.5010     1.1760    -2.2920 c3         1 DFP      -0.116100
      7 P            2.4120    -1.2390    -2.2380 p5         1 DFP       1.211200
      8 O1P          1.6720    -0.4620    -1.0520 os         1 DFP      -0.617900
      9 O2P          3.6600    -0.2950    -2.5320 os         1 DFP      -0.617900
     10 O3P          1.6100    -1.5010    -3.4550 o          1 DFP      -0.546000
     11 H1          -0.3110    -0.8810    -1.4660 h1         1 DFP       0.055700
     12 H21         -0.6250    -2.3910     0.4960 hc         1 DFP       0.048200
     13 H22          0.6550    -2.9780    -0.5500 hc         1 DFP       0.048200
     14 H23          1.0620    -2.1470     0.9590 hc         1 DFP       0.048200
     15 H31         -1.1290     0.0980     0.6530 hc         1 DFP       0.048200
     16 H32         -0.1350     1.2550    -0.2280 hc         1 DFP       0.048200
     17 H33          0.5280     0.4030     1.1770 hc         1 DFP       0.048200
     18 H4           3.8290     1.0400    -0.9640 h1         1 DFP       0.055700
     19 H2'1         5.7620    -0.1030     0.1120 hc         1 DFP       0.048200
     20 H2'2         4.3860    -1.1830     0.0060 hc         1 DFP       0.048200
     21 H2'3         5.7320    -1.3530    -1.1330 hc         1 DFP       0.048200
     22 H3'1         6.1060     1.7480    -1.5880 hc         1 DFP       0.048200
     23 H3'2         5.0270     1.8810    -2.9750 hc         1 DFP       0.048200
     24 H3'3         6.1690     0.5300    -2.8630 hc         1 DFP       0.048200
     25 HP1          2.9360    -2.4040    -1.6560 hp         1 DFP      -0.132400
@<TRIPOS>BOND
     1     1     2 1   
     2     1     3 1   
     3     1     8 1   
     4     1    11 1   
     5     2    12 1   
     6     2    13 1   
     7     2    14 1   
     8     3    15 1   
     9     3    16 1   
    10     3    17 1   
    11     4     5 1   
    12     4     6 1   
    13     4     9 1   
    14     4    18 1   
    15     5    19 1   
    16     5    20 1   
    17     5    21 1   
    18     6    22 1   
    19     6    23 1   
    20     6    24 1   
    21     7     8 1   
    22     7     9 1   
    23     7    10 2   
    24     7    25 1   
@<TRIPOS>SUBSTRUCTURE
     1 DFP         1 TEMP              0 ****  ****    0 ROOT
