@<TRIPOS>MOLECULE
DFQ
   45    47     1     0     0
SMALL
No Charge or Current Charge


@<TRIPOS>ATOM
      1 C1         -26.2920   -19.6850    -3.1100 c3         1 DFQ       0.098300
      2 N2         -25.4970   -20.3230    -2.0590 ns         1 DFQ      -0.508900
      3 C4         -24.5390   -19.6790    -1.3150 c          1 DFQ       0.595300
      4 O5         -24.2690   -18.4980    -1.4760 o          1 DFQ      -0.613100
      5 C6         -23.8650   -20.5380    -0.3060 ce         1 DFQ      -0.291200
      6 C7         -22.8830   -20.1090     0.5420 cf         1 DFQ      -0.076200
      7 C8         -22.1490   -20.8670     1.5760 ca         1 DFQ      -0.121800
      8 C9         -21.1630   -20.2270     2.3500 ca         1 DFQ      -0.046000
      9 C10        -20.4770   -20.9660     3.3300 ca         1 DFQ      -0.049000
     10 C11        -19.4870   -20.3430     4.1160 ca         1 DFQ      -0.185000
     11 C12        -22.3980   -22.2340     1.8270 ca         1 DFQ       0.355900
     12 N13        -21.7400   -22.9530     2.7680 nb         1 DFQ      -0.653000
     13 C14        -20.7930   -22.3360     3.5120 ca         1 DFQ       0.246000
     14 C15        -20.0930   -23.0590     4.4950 ca         1 DFQ      -0.056000
     15 C16        -19.1060   -22.4380     5.2820 ca         1 DFQ      -0.111000
     16 C17        -18.8020   -21.0800     5.1030 ca         1 DFQ       0.145100
     17 O18        -17.8300   -20.5280     5.9130 os         1 DFQ      -0.340100
     18 C19        -17.6010   -19.1080     6.0110 c3         1 DFQ       0.223600
     19 C20        -16.3480   -18.9010     6.8830 c3         1 DFQ      -0.085100
     20 C21        -18.8420   -18.3800     6.5740 ca         1 DFQ      -0.077300
     21 C22        -19.5500   -18.8550     7.7180 ca         1 DFQ       0.100000
     22 Cl23       -19.0480   -20.2990     8.6160 cl         1 DFQ      -0.149000
     23 C24        -20.6880   -18.1650     8.1840 ca         1 DFQ       0.177000
     24 F25        -21.3640   -18.6160     9.2660 f          1 DFQ      -0.156000
     25 C26        -21.1350   -17.0030     7.5450 ca         1 DFQ      -0.128000
     26 C27        -20.4370   -16.5140     6.4320 ca         1 DFQ      -0.076000
     27 C28        -19.3020   -17.1880     5.9510 ca         1 DFQ       0.109000
     28 Cl29       -18.4780   -16.4740     4.5620 cl         1 DFQ      -0.197000
     29 H1         -26.9820   -20.4190    -3.5450 h1         1 DFQ       0.041367
     30 H1A        -26.8690   -18.8530    -2.6850 h1         1 DFQ       0.041367
     31 H1B        -25.6270   -19.3030    -3.8960 h1         1 DFQ       0.041367
     32 HN2        -25.6550   -21.3030    -1.8570 hn         1 DFQ       0.314500
     33 H6         -24.1990   -21.5710    -0.2650 ha         1 DFQ       0.175000
     34 H7         -22.5820   -19.0600     0.4620 ha         1 DFQ       0.198000
     35 H9         -20.9350   -19.1740     2.1950 ha         1 DFQ       0.123000
     36 H11        -19.2620   -19.2960     3.9420 ha         1 DFQ       0.125000
     37 H12        -23.1480   -22.7830     1.2600 h4         1 DFQ       0.018100
     38 H15        -20.3190   -24.1100     4.6490 ha         1 DFQ       0.136000
     39 H16        -18.5780   -23.0110     6.0400 ha         1 DFQ       0.133000
     40 H19        -17.3520   -18.7320     5.0130 h1         1 DFQ       0.064700
     41 H20        -16.1100   -17.8330     6.9550 hc         1 DFQ       0.056367
     42 H20A       -16.4930   -19.2880     7.8970 hc         1 DFQ       0.056367
     43 H20B       -15.4850   -19.4110     6.4390 hc         1 DFQ       0.056367
     44 H26        -22.0130   -16.4800     7.9170 ha         1 DFQ       0.145000
     45 H27        -20.7740   -15.6040     5.9390 ha         1 DFQ       0.141000
@<TRIPOS>BOND
     1     1     2 1   
     2     1    29 1   
     3     1    30 1   
     4     1    31 1   
     5     2     3 1   
     6     2    32 1   
     7     3     4 2   
     8     3     5 1   
     9     5     6 2   
    10     5    33 1   
    11     6     7 1   
    12     6    34 1   
    13     7     8 ar  
    14     7    11 ar  
    15     8     9 ar  
    16     8    35 1   
    17     9    10 ar  
    18     9    13 ar  
    19    10    16 ar  
    20    10    36 1   
    21    11    12 ar  
    22    11    37 1   
    23    12    13 ar  
    24    13    14 ar  
    25    14    15 ar  
    26    14    38 1   
    27    15    16 ar  
    28    15    39 1   
    29    16    17 1   
    30    17    18 1   
    31    18    19 1   
    32    18    20 1   
    33    18    40 1   
    34    19    41 1   
    35    19    42 1   
    36    19    43 1   
    37    20    21 ar  
    38    20    27 ar  
    39    21    22 1   
    40    21    23 ar  
    41    23    24 1   
    42    23    25 ar  
    43    25    26 ar  
    44    25    44 1   
    45    26    27 ar  
    46    26    45 1   
    47    27    28 1   
@<TRIPOS>SUBSTRUCTURE
     1 DFQ         1 TEMP              0 ****  ****    0 ROOT
