@<TRIPOS>MOLECULE
DFQ
   45    47     1     0     0
SMALL
abcg2


@<TRIPOS>ATOM
      1 C1         -26.3380   -19.6350    -2.8330 c3         1 DFQ       0.098300
      2 N2         -25.5130   -20.3330    -1.8660 ns         1 DFQ      -0.508900
      3 C4         -24.5540   -19.7140    -1.1480 c          1 DFQ       0.595300
      4 O5         -24.3150   -18.5070    -1.2740 o          1 DFQ      -0.613100
      5 C6         -23.8280   -20.5980    -0.2060 ce         1 DFQ      -0.291200
      6 C7         -22.8660   -20.1240     0.5930 cf         1 DFQ      -0.076200
      7 C8         -22.0830   -20.8750     1.5650 ca         1 DFQ      -0.121800
      8 C9         -21.1610   -20.2250     2.3590 ca         1 DFQ      -0.046000
      9 C10        -20.4120   -20.9410     3.3140 ca         1 DFQ      -0.049000
     10 C11        -19.4670   -20.3170     4.1630 ca         1 DFQ      -0.185000
     11 C12        -22.2260   -22.2810     1.7470 ca         1 DFQ       0.355900
     12 N13        -21.5480   -22.9830     2.6210 nb         1 DFQ      -0.653000
     13 C14        -20.6450   -22.3410     3.4150 ca         1 DFQ       0.246000
     14 C15        -19.9180   -23.0830     4.3740 ca         1 DFQ      -0.056000
     15 C16        -19.0170   -22.4620     5.1940 ca         1 DFQ      -0.111000
     16 C17        -18.7850   -21.0670     5.0930 ca         1 DFQ       0.145100
     17 O18        -17.8710   -20.5880     5.9750 os         1 DFQ      -0.340100
     18 C19        -17.6480   -19.1780     6.0740 c3         1 DFQ       0.223600
     19 C20        -16.4840   -18.9820     7.0320 c3         1 DFQ      -0.085100
     20 C21        -18.8830   -18.4020     6.5100 ca         1 DFQ      -0.077300
     21 C22        -19.7660   -18.8480     7.5020 ca         1 DFQ       0.100000
     22 CL23       -19.5230   -20.3250     8.3860 cl         1 DFQ      -0.149000
     23 C24        -20.8880   -18.0970     7.8350 ca         1 DFQ       0.177000
     24 F25        -21.7320   -18.5610     8.7750 f          1 DFQ      -0.156000
     25 C26        -21.1610   -16.8850     7.2350 ca         1 DFQ      -0.128000
     26 C27        -20.2840   -16.4070     6.2770 ca         1 DFQ      -0.076000
     27 C28        -19.1710   -17.1600     5.9310 ca         1 DFQ       0.109000
     28 CL29       -18.1090   -16.4800     4.7130 cl         1 DFQ      -0.197000
     29 H1         -27.0310   -20.3480    -3.2740 h1         1 DFQ       0.041367
     30 H1A        -26.9060   -18.8340    -2.3550 h1         1 DFQ       0.041367
     31 H1B        -25.7270   -19.1960    -3.6230 h1         1 DFQ       0.041367
     32 HN2        -25.6700   -21.3170    -1.7190 hn         1 DFQ       0.314500
     33 H6         -24.1190   -21.6420    -0.1930 ha         1 DFQ       0.175000
     34 H7         -22.6370   -19.0640     0.5260 ha         1 DFQ       0.198000
     35 H9         -21.0120   -19.1560     2.2580 ha         1 DFQ       0.123000
     36 H11        -19.3110   -19.2540     4.0560 ha         1 DFQ       0.125000
     37 H12        -22.9330   -22.8300     1.1350 h4         1 DFQ       0.018100
     38 H15        -20.0980   -24.1470     4.4500 ha         1 DFQ       0.136000
     39 H16        -18.4640   -23.0190     5.9390 ha         1 DFQ       0.133000
     40 H19        -17.3590   -18.8170     5.0890 h1         1 DFQ       0.064700
     41 H20        -16.2370   -17.9220     7.0910 hc         1 DFQ       0.056367
     42 H20A       -16.7370   -19.3400     8.0300 hc         1 DFQ       0.056367
     43 H20B       -15.6130   -19.5260     6.6660 hc         1 DFQ       0.056367
     44 H26        -22.0430   -16.3290     7.5230 ha         1 DFQ       0.145000
     45 H27        -20.4640   -15.4570     5.7950 ha         1 DFQ       0.141000
@<TRIPOS>BOND
     1     1     2 1   
     2     1    29 1   
     3     1    30 1   
     4     1    31 1   
     5     2     3 1   
     6     2    32 1   
     7     3     4 2   
     8     3     5 1   
     9     5     6 2   
    10     5    33 1   
    11     6     7 1   
    12     6    34 1   
    13     7     8 ar  
    14     7    11 ar  
    15     8     9 ar  
    16     8    35 1   
    17     9    10 ar  
    18     9    13 ar  
    19    10    16 ar  
    20    10    36 1   
    21    11    12 ar  
    22    11    37 1   
    23    12    13 ar  
    24    13    14 ar  
    25    14    15 ar  
    26    14    38 1   
    27    15    16 ar  
    28    15    39 1   
    29    16    17 1   
    30    17    18 1   
    31    18    19 1   
    32    18    20 1   
    33    18    40 1   
    34    19    41 1   
    35    19    42 1   
    36    19    43 1   
    37    20    21 ar  
    38    20    27 ar  
    39    21    22 1   
    40    21    23 ar  
    41    23    24 1   
    42    23    25 ar  
    43    25    26 ar  
    44    25    44 1   
    45    26    27 ar  
    46    26    45 1   
    47    27    28 1   
@<TRIPOS>SUBSTRUCTURE
     1 DFQ         1 TEMP              0 ****  ****    0 ROOT
