@<TRIPOS>MOLECULE
DFR
   26    26     1     0     0
SMALL
bcc


@<TRIPOS>ATOM
      1 C5          32.1710    32.7480    58.9520 c5         1 DFR       0.149100
      2 C4          32.1280    31.6360    57.8860 c5         1 DFR       0.105100
      3 C3          33.6010    31.2300    57.7270 c5         1 DFR      -0.115700
      4 C2          34.3490    32.4790    58.2120 c5         1 DFR       0.359600
      5 C1          34.5080    33.5200    57.1000 c3         1 DFR       0.082400
      6 C6          31.4070    32.3760    60.2030 c3         1 DFR       0.142400
      7 C7          33.9170    29.9880    58.5520 c3         1 DFR      -0.073100
      8 O5          33.5300    32.9800    59.2590 os         1 DFR      -0.399600
      9 O4          31.5330    32.1640    56.7240 oh         1 DFR      -0.592800
     10 O2          35.5880    32.1660    58.7380 oh         1 DFR      -0.577800
     11 O1          35.1980    34.6240    57.6420 oh         1 DFR      -0.593800
     12 O6          31.4480    33.4490    61.1100 oh         1 DFR      -0.577800
     13 H5          31.7180    33.6550    58.5250 h1         1 DFR       0.077700
     14 H4          31.5440    30.7760    58.2450 h1         1 DFR       0.045700
     15 H3          33.8250    31.0230    56.6760 hc         1 DFR       0.062700
     16 H11         35.0670    33.0560    56.2790 h1         1 DFR       0.040200
     17 H12         33.5300    33.8080    56.6990 h1         1 DFR       0.040200
     18 H61         30.3790    32.1360    59.9010 h1         1 DFR       0.021200
     19 H62         31.8340    31.4590    60.6340 h1         1 DFR       0.021200
     20 H71         34.9550    29.6790    58.4440 hc         1 DFR       0.043033
     21 H72         33.7220    30.1420    59.6150 hc         1 DFR       0.043033
     22 H73         33.2900    29.1590    58.2210 hc         1 DFR       0.043033
     23 HO4         31.4740    31.4610    56.0700 ho         1 DFR       0.407000
     24 HO2         36.1180    32.9740    58.7590 ho         1 DFR       0.436000
     25 HO1         35.5970    35.1200    56.9220 ho         1 DFR       0.408000
     26 HO6         30.9470    33.2020    61.8920 ho         1 DFR       0.402000
@<TRIPOS>BOND
     1     1     2 1   
     2     1     6 1   
     3     1     8 1   
     4     1    13 1   
     5     2     3 1   
     6     2     9 1   
     7     2    14 1   
     8     3     4 1   
     9     3     7 1   
    10     3    15 1   
    11     4     5 1   
    12     4     8 1   
    13     4    10 1   
    14     5    11 1   
    15     5    16 1   
    16     5    17 1   
    17     6    12 1   
    18     6    18 1   
    19     6    19 1   
    20     7    20 1   
    21     7    21 1   
    22     7    22 1   
    23     9    23 1   
    24    10    24 1   
    25    11    25 1   
    26    12    26 1   
@<TRIPOS>SUBSTRUCTURE
     1 DFR         1 TEMP              0 ****  ****    0 ROOT
