@<TRIPOS>MOLECULE
DFR
   26    26     1     0     0
SMALL
No Charge or Current Charge


@<TRIPOS>ATOM
      1 C5          32.2020    32.7400    58.9680 c5         1 DFR       0.172300
      2 C4          32.1430    31.6620    57.8170 c5         1 DFR       0.128300
      3 C3          33.6170    31.1510    57.7530 c5         1 DFR      -0.115700
      4 C2          34.3860    32.4400    58.1880 c5         1 DFR       0.406000
      5 C1          34.5200    33.5770    57.1090 c3         1 DFR       0.105600
      6 C6          31.3880    32.3580    60.2380 c3         1 DFR       0.165600
      7 C7          33.8550    29.9090    58.6570 c3         1 DFR      -0.073100
      8 O5          33.6110    32.8900    59.3040 os         1 DFR      -0.446000
      9 O4          31.7370    32.2170    56.5590 oh         1 DFR      -0.715000
     10 O2          35.7030    32.1790    58.6190 oh         1 DFR      -0.640000
     11 O1          35.4890    34.5750    57.5230 oh         1 DFR      -0.716000
     12 O6          31.2810    33.4630    61.1560 oh         1 DFR      -0.700000
     13 H5          31.8250    33.7030    58.5970 h1         1 DFR       0.077700
     14 H4          31.4600    30.8440    58.0860 h1         1 DFR       0.045700
     15 H3          33.8980    30.8500    56.7380 hc         1 DFR       0.062700
     16 H11         34.8260    33.1220    56.1570 h1         1 DFR       0.040200
     17 H12         33.5430    34.0500    56.9440 h1         1 DFR       0.040200
     18 H61         30.3840    32.0420    59.9230 h1         1 DFR       0.021200
     19 H62         31.8660    31.4970    60.7250 h1         1 DFR       0.021200
     20 H71         34.8930    29.5600    58.5870 hc         1 DFR       0.043033
     21 H72         33.6480    30.1260    59.7120 hc         1 DFR       0.043033
     22 H73         33.2100    29.0750    58.3560 hc         1 DFR       0.043033
     23 HO4         31.5340    31.4620    55.9580 ho         1 DFR       0.506000
     24 HO2         36.1110    33.0670    58.4800 ho         1 DFR       0.475000
     25 HO1         35.4360    35.3220    56.8790 ho         1 DFR       0.507000
     26 HO6         30.8130    33.1280    61.9560 ho         1 DFR       0.501000
@<TRIPOS>BOND
     1     1     2 1   
     2     1     6 1   
     3     1     8 1   
     4     1    13 1   
     5     2     3 1   
     6     2     9 1   
     7     2    14 1   
     8     3     4 1   
     9     3     7 1   
    10     3    15 1   
    11     4     5 1   
    12     4     8 1   
    13     4    10 1   
    14     5    11 1   
    15     5    16 1   
    16     5    17 1   
    17     6    12 1   
    18     6    18 1   
    19     6    19 1   
    20     7    20 1   
    21     7    21 1   
    22     7    22 1   
    23     9    23 1   
    24    10    24 1   
    25    11    25 1   
    26    12    26 1   
@<TRIPOS>SUBSTRUCTURE
     1 DFR         1 TEMP              0 ****  ****    0 ROOT
