@<TRIPOS>MOLECULE
DFS
   42    44     1     0     0
SMALL
bcc


@<TRIPOS>ATOM
      1 C1           4.9720    -0.8550     0.2320 ca         1 DFS      -0.173500
      2 C2           5.3190    -1.1130    -1.1040 ca         1 DFS       0.505300
      3 N3           4.5080    -0.8610    -2.1230 nb         1 DFS      -0.577000
      4 C4           3.3370    -0.3450    -1.8150 ca         1 DFS       0.353200
      5 C5           2.9040    -0.0540    -0.5030 ca         1 DFS      -0.043700
      6 C6           3.7430    -0.3140     0.5730 ca         1 DFS      -0.115000
      7 N7           6.0600    -1.2480     0.9530 na         1 DFS      -0.259300
      8 C8           6.9760    -1.7060     0.0640 cc         1 DFS       0.422700
      9 N9           6.5780    -1.6450    -1.1760 nd         1 DFS      -0.624700
     10 N10          1.6200     0.4930    -0.3950 ns         1 DFS      -0.451100
     11 C11          0.9580     0.8570     0.7210 c          1 DFS       0.704700
     12 C12         -0.3990     1.4420     0.4560 ca         1 DFS      -0.245600
     13 O13          1.3720     0.7380     1.8560 o          1 DFS      -0.554100
     14 C14         -1.5390     0.7830     0.8780 ca         1 DFS       0.170900
     15 C15         -2.8110     1.3230     0.7480 ca         1 DFS       0.043600
     16 C16         -2.9290     2.5790     0.1640 ca         1 DFS      -0.031000
     17 C17         -1.8140     3.2640    -0.2890 ca         1 DFS      -0.178000
     18 C18         -0.5710     2.6860    -0.1300 ca         1 DFS       0.192900
     19 F19          0.5180     3.3460    -0.5330 f          1 DFS      -0.121900
     20 F20         -1.4070    -0.4260     1.4250 f          1 DFS      -0.125900
     21 N21         -3.9450     0.6290     1.2160 nu         1 DFS      -0.680500
     22 S22         -4.9610    -0.1270     0.1280 s6         1 DFS       1.207900
     23 C23         -4.0060    -1.4350    -0.6300 c3         1 DFS      -0.228600
     24 C24         -4.8590    -2.2590    -1.5880 c3         1 DFS      -0.045400
     25 C25         -4.0070    -3.2930    -2.3130 c3         1 DFS      -0.084100
     26 O26         -6.0190    -0.7140     0.9320 o          1 DFS      -0.590300
     27 O27         -5.2920     0.8520    -0.8940 o          1 DFS      -0.590300
     28 H1           2.6670    -0.1330    -2.6430 h4         1 DFS       0.019100
     29 H2           3.4670    -0.1170     1.5950 ha         1 DFS       0.175000
     30 H3           6.1770    -1.2090     1.9530 hn         1 DFS       0.313700
     31 H4           7.9340    -2.0780     0.3940 h5         1 DFS       0.066800
     32 H6           1.1300     0.6110    -1.2700 hn         1 DFS       0.328500
     33 H7          -3.9060     3.0300     0.0710 ha         1 DFS       0.176000
     34 H8          -1.9090     4.2410    -0.7430 ha         1 DFS       0.171000
     35 H9          -3.8160     0.0850     2.0630 hn         1 DFS       0.448800
     36 H10         -3.1720    -0.9580    -1.1510 h1         1 DFS       0.094200
     37 H11         -3.6070    -2.0480     0.1800 h1         1 DFS       0.094200
     38 H12         -5.6540    -2.7570    -1.0300 hc         1 DFS       0.058700
     39 H13         -5.3370    -1.6040    -2.3170 hc         1 DFS       0.058700
     40 H14         -3.2450    -2.8140    -2.9290 hc         1 DFS       0.037700
     41 H15         -3.5030    -3.9580    -1.6110 hc         1 DFS       0.037700
     42 H16         -4.6270    -3.9060    -2.9660 hc         1 DFS       0.037700
@<TRIPOS>BOND
     1     1     2 ar  
     2     1     6 ar  
     3     1     7 1   
     4     2     3 ar  
     5     2     9 1   
     6     3     4 ar  
     7     4     5 ar  
     8     4    28 1   
     9     5     6 ar  
    10     5    10 1   
    11     6    29 1   
    12     7     8 1   
    13     7    30 1   
    14     8     9 2   
    15     8    31 1   
    16    10    11 1   
    17    10    32 1   
    18    11    12 1   
    19    11    13 2   
    20    12    14 ar  
    21    12    18 ar  
    22    14    15 ar  
    23    14    20 1   
    24    15    16 ar  
    25    15    21 1   
    26    16    17 ar  
    27    16    33 1   
    28    17    18 ar  
    29    17    34 1   
    30    18    19 1   
    31    21    22 1   
    32    21    35 1   
    33    22    23 1   
    34    22    26 2   
    35    22    27 2   
    36    23    24 1   
    37    23    36 1   
    38    23    37 1   
    39    24    25 1   
    40    24    38 1   
    41    24    39 1   
    42    25    40 1   
    43    25    41 1   
    44    25    42 1   
@<TRIPOS>SUBSTRUCTURE
     1 DFS         1 TEMP              0 ****  ****    0 ROOT
