@<TRIPOS>MOLECULE
DFS
   42    44     1     0     0
SMALL
No Charge or Current Charge


@<TRIPOS>ATOM
      1 C1           5.7670    -0.4530     0.5420 ca         1 DFS      -0.108200
      2 C2           6.3980    -0.2420    -0.6580 ca         1 DFS       0.440000
      3 N3           5.7450     0.1860    -1.7500 nb         1 DFS      -0.577000
      4 C4           4.4120     0.4060    -1.6180 ca         1 DFS       0.287900
      5 C5           3.6860     0.2150    -0.4120 ca         1 DFS      -0.071000
      6 C6           4.3970    -0.2390     0.7250 ca         1 DFS      -0.097000
      7 N7           6.7070    -0.8810     1.4280 na         1 DFS      -0.309600
      8 C8           7.9120    -0.9220     0.7380 cc         1 DFS       0.422700
      9 N9           7.7520    -0.5350    -0.5450 nd         1 DFS      -0.624700
     10 N10          2.2860     0.4840    -0.4180 ns         1 DFS      -0.125000
     11 C11          1.3250     0.4780     0.5880 c          1 DFS       0.637700
     12 C12         -0.0840     0.8310     0.1650 ca         1 DFS      -0.245600
     13 O13          1.6000     0.2390     1.7580 o          1 DFS      -0.554100
     14 C14         -1.1930     0.2950     0.8670 ca         1 DFS       0.206000
     15 C15         -2.5300     0.6020     0.5010 ca         1 DFS       0.182000
     16 C16         -2.7470     1.4790    -0.5810 ca         1 DFS      -0.013000
     17 C17         -1.6590     2.0210    -1.2810 ca         1 DFS      -0.160000
     18 C18         -0.3440     1.7030    -0.9180 ca         1 DFS       0.228000
     19 F19          0.6570     2.2940    -1.6060 f          1 DFS      -0.157000
     20 F20         -0.9950    -0.5740     1.8900 f          1 DFS      -0.161000
     21 N21         -3.6010     0.0350     1.2250 nu         1 DFS      -0.874100
     22 S22         -5.1530    -0.3110     0.7410 s6         1 DFS       1.177100
     23 C23         -4.9610    -1.3190    -0.7370 c3         1 DFS      -0.339400
     24 C24         -6.3080    -1.7810    -1.3410 c3         1 DFS      -0.045400
     25 C25         -6.1190    -2.6390    -2.6050 c3         1 DFS      -0.084100
     26 O26         -5.7020    -1.1390     1.8160 o          1 DFS      -0.519500
     27 O27         -5.7760     0.9670     0.3930 o          1 DFS      -0.519500
     28 H1           3.9000     0.7530    -2.5160 h4         1 DFS       0.019100
     29 H2           3.9310    -0.4230     1.6890 ha         1 DFS       0.157000
     30 H3           6.5740    -1.1260     2.4020 hn         1 DFS       0.364000
     31 H4           8.8400    -1.2310     1.2060 h5         1 DFS       0.066800
     32 H6           1.9190     0.7220    -1.3300 hn         1 DFS       0.162000
     33 H7          -3.7510     1.7570    -0.8830 ha         1 DFS       0.158000
     34 H8          -1.8350     2.7040    -2.1090 ha         1 DFS       0.153000
     35 H9          -3.3800    -0.6510     1.9380 hn         1 DFS       0.504000
     36 H10         -4.4040    -0.7110    -1.4570 h1         1 DFS       0.094200
     37 H11         -4.3530    -2.1810    -0.4420 h1         1 DFS       0.094200
     38 H12         -6.8700    -2.3610    -0.5970 hc         1 DFS       0.058700
     39 H13         -6.9210    -0.9050    -1.5940 hc         1 DFS       0.058700
     40 H14         -5.5900    -2.0740    -3.3820 hc         1 DFS       0.037700
     41 H15         -5.5380    -3.5410    -2.3770 hc         1 DFS       0.037700
     42 H16         -7.0910    -2.9490    -3.0070 hc         1 DFS       0.037700
@<TRIPOS>BOND
     1     1     2 ar  
     2     1     6 ar  
     3     1     7 1   
     4     2     3 ar  
     5     2     9 1   
     6     3     4 ar  
     7     4     5 ar  
     8     4    28 1   
     9     5     6 ar  
    10     5    10 1   
    11     6    29 1   
    12     7     8 1   
    13     7    30 1   
    14     8     9 2   
    15     8    31 1   
    16    10    11 1   
    17    10    32 1   
    18    11    12 1   
    19    11    13 2   
    20    12    14 ar  
    21    12    18 ar  
    22    14    15 ar  
    23    14    20 1   
    24    15    16 ar  
    25    15    21 1   
    26    16    17 ar  
    27    16    33 1   
    28    17    18 ar  
    29    17    34 1   
    30    18    19 1   
    31    21    22 1   
    32    21    35 1   
    33    22    23 1   
    34    22    26 2   
    35    22    27 2   
    36    23    24 1   
    37    23    36 1   
    38    23    37 1   
    39    24    25 1   
    40    24    38 1   
    41    24    39 1   
    42    25    40 1   
    43    25    41 1   
    44    25    42 1   
@<TRIPOS>SUBSTRUCTURE
     1 DFS         1 TEMP              0 ****  ****    0 ROOT
