@<TRIPOS>MOLECULE
DFU
   23    23     1     0     0
SMALL
No Charge or Current Charge


@<TRIPOS>ATOM
      1 C1          74.4500    55.6290    68.7380 c6         1 DFU       0.151800
      2 C2          73.8520    54.2160    69.0340 c6         1 DFU       0.144300
      3 C3          72.3860    54.3320    69.5690 c6         1 DFU       0.120300
      4 C4          71.5230    55.2340    68.6310 c6         1 DFU       0.140300
      5 C5          72.2100    56.6280    68.4980 c6         1 DFU       0.139500
      6 C6          71.3880    57.6340    67.6520 c3         1 DFU      -0.092100
      7 O4          71.4450    54.6380    67.3230 oh         1 DFU      -0.734000
      8 O3          71.7940    53.0230    69.6800 oh         1 DFU      -0.651000
      9 O2          74.6610    53.4840    69.9730 oh         1 DFU      -0.721000
     10 N5          73.5480    56.4550    67.8790 n7         1 DFU      -0.895400
     11 H11         74.6270    56.1540    69.6890 h1         1 DFU       0.048700
     12 H12         75.4240    55.5140    68.2390 h1         1 DFU       0.048700
     13 H2          73.8250    53.6670    68.0800 h1         1 DFU       0.042700
     14 H3          72.4210    54.8140    70.5590 h1         1 DFU       0.084700
     15 H4          70.5210    55.3610    69.0710 h1         1 DFU       0.083700
     16 H5          72.3290    57.0640    69.5020 h1         1 DFU       0.035700
     17 H61         71.8730    58.6180    67.6280 hc         1 DFU       0.046367
     18 H62         71.2680    57.2980    66.6150 hc         1 DFU       0.046367
     19 H63         70.3870    57.7740    68.0750 hc         1 DFU       0.046367
     20 HO4         72.2160    55.0590    66.8640 ho         1 DFU       0.524000
     21 HO3         71.3890    52.8550    68.7970 ho         1 DFU       0.452000
     22 HO2         74.0860    52.7440    70.2830 ho         1 DFU       0.510000
     23 HN5         73.9800    57.3820    67.7570 hn         1 DFU       0.428000
@<TRIPOS>BOND
     1     1     2 1   
     2     1    10 1   
     3     1    11 1   
     4     1    12 1   
     5     2     3 1   
     6     2     9 1   
     7     2    13 1   
     8     3     4 1   
     9     3     8 1   
    10     3    14 1   
    11     4     5 1   
    12     4     7 1   
    13     4    15 1   
    14     5     6 1   
    15     5    10 1   
    16     5    16 1   
    17     6    17 1   
    18     6    18 1   
    19     6    19 1   
    20     7    20 1   
    21     8    21 1   
    22     9    22 1   
    23    10    23 1   
@<TRIPOS>SUBSTRUCTURE
     1 DFU         1 TEMP              0 ****  ****    0 ROOT
