@<TRIPOS>MOLECULE
DFU
   23    23     1     0     0
SMALL
abcg2


@<TRIPOS>ATOM
      1 C1          74.4030    55.5340    68.6830 c6         1 DFU       0.151800
      2 C2          73.7520    54.2170    69.0960 c6         1 DFU       0.144300
      3 C3          72.3370    54.4380    69.6380 c6         1 DFU       0.120300
      4 C4          71.5140    55.3760    68.7520 c6         1 DFU       0.140300
      5 C5          72.2770    56.6710    68.4680 c6         1 DFU       0.139500
      6 C6          71.4700    57.6650    67.6180 c3         1 DFU      -0.092100
      7 O4          71.1900    54.7010    67.5270 oh         1 DFU      -0.734000
      8 O3          71.6540    53.1960    69.8080 oh         1 DFU      -0.651000
      9 O2          74.5650    53.6050    70.1060 oh         1 DFU      -0.721000
     10 N5          73.5120    56.2680    67.7910 n7         1 DFU      -0.895400
     11 H11         74.6280    56.1000    69.6010 h1         1 DFU       0.048700
     12 H12         75.3440    55.3310    68.1720 h1         1 DFU       0.048700
     13 H2          73.6910    53.5520    68.2300 h1         1 DFU       0.042700
     14 H3          72.4280    54.8740    70.6370 h1         1 DFU       0.084700
     15 H4          70.5650    55.5920    69.2460 h1         1 DFU       0.083700
     16 H5          72.5040    57.1260    69.4440 h1         1 DFU       0.035700
     17 H61         71.2790    58.5850    68.1690 hc         1 DFU       0.046367
     18 H62         72.0150    57.9250    66.7090 hc         1 DFU       0.046367
     19 H63         70.5130    57.2420    67.3140 hc         1 DFU       0.046367
     20 HO4         71.9430    54.8590    66.9340 ho         1 DFU       0.524000
     21 HO3         71.3160    52.9580    68.9320 ho         1 DFU       0.452000
     22 HO2         74.7210    52.6870    69.8610 ho         1 DFU       0.510000
     23 HN5         73.9830    57.0730    67.3990 hn         1 DFU       0.428000
@<TRIPOS>BOND
     1     1     2 1   
     2     1    10 1   
     3     1    11 1   
     4     1    12 1   
     5     2     3 1   
     6     2     9 1   
     7     2    13 1   
     8     3     4 1   
     9     3     8 1   
    10     3    14 1   
    11     4     5 1   
    12     4     7 1   
    13     4    15 1   
    14     5     6 1   
    15     5    10 1   
    16     5    16 1   
    17     6    17 1   
    18     6    18 1   
    19     6    19 1   
    20     7    20 1   
    21     8    21 1   
    22     9    22 1   
    23    10    23 1   
@<TRIPOS>SUBSTRUCTURE
     1 DFU         1 TEMP              0 ****  ****    0 ROOT
