@<TRIPOS>MOLECULE
DFV
   31    33     1     0     0
SMALL
bcc


@<TRIPOS>ATOM
      1 C1           1.3320     0.2800    -3.9170 ca         1 DFV       0.206100
      2 C2           0.0680     0.0460    -4.4790 ca         1 DFV      -0.216000
      3 C3          -1.0050    -0.1540    -3.6460 ca         1 DFV       0.000000
      4 C4          -0.8720    -0.1290    -2.2520 ca         1 DFV      -0.308600
      5 C5           0.3960     0.1240    -1.7100 ca         1 DFV       0.228100
      6 C6           1.4940     0.3250    -2.5390 ca         1 DFV      -0.289000
      7 C7          -2.0000    -0.4430    -1.3760 c          1 DFV       0.599700
      8 C8          -1.6510    -0.5370     0.0870 c6         1 DFV      -0.215400
      9 C9          -0.5190     0.4110     0.4500 c6         1 DFV       0.215400
     10 O1           0.6190     0.1810    -0.3890 os         1 DFV      -0.315900
     11 C10         -0.0750     0.2590     1.8740 ca         1 DFV      -0.135300
     12 C11          0.5400    -0.9130     2.3110 ca         1 DFV      -0.063500
     13 C12          0.9150    -1.0730     3.6320 ca         1 DFV      -0.198000
     14 C13          0.6700    -0.0540     4.5540 ca         1 DFV       0.152100
     15 C14          0.0560     1.1210     4.1300 ca         1 DFV      -0.198000
     16 C15         -0.3050     1.2690     2.7980 ca         1 DFV      -0.063500
     17 O2          -3.1220    -0.6630    -1.7900 o          1 DFV      -0.526100
     18 O3           2.3520     0.4670    -4.7610 oh         1 DFV      -0.485100
     19 O4           1.0480    -0.2630     5.8290 oh         1 DFV      -0.491100
     20 H2          -0.0480     0.0180    -5.5540 ha         1 DFV       0.154000
     21 H3          -1.9800    -0.3510    -4.0730 ha         1 DFV       0.153000
     22 H6           2.4650     0.5260    -2.0990 ha         1 DFV       0.150000
     23 H81         -1.3590    -1.5730     0.2980 hc         1 DFV       0.084700
     24 H82         -2.5260    -0.3180     0.7000 hc         1 DFV       0.084700
     25 H9          -0.8560     1.4420     0.2830 h1         1 DFV       0.056700
     26 H11          0.7320    -1.7200     1.6140 ha         1 DFV       0.136500
     27 H12          1.3940    -1.9870     3.9580 ha         1 DFV       0.142500
     28 H14         -0.1380     1.9230     4.8330 ha         1 DFV       0.142500
     29 H15         -0.7770     2.1910     2.4810 ha         1 DFV       0.136500
     30 HO3          3.1750     0.6170    -4.2800 ho         1 DFV       0.433000
     31 HO4          0.8110     0.4920     6.3790 ho         1 DFV       0.428000
@<TRIPOS>BOND
     1     1     2 ar  
     2     1     6 ar  
     3     1    18 1   
     4     2     3 ar  
     5     2    20 1   
     6     3     4 ar  
     7     3    21 1   
     8     4     5 ar  
     9     4     7 1   
    10     5     6 ar  
    11     5    10 1   
    12     6    22 1   
    13     7     8 1   
    14     7    17 2   
    15     8     9 1   
    16     8    23 1   
    17     8    24 1   
    18     9    10 1   
    19     9    11 1   
    20     9    25 1   
    21    11    12 ar  
    22    11    16 ar  
    23    12    13 ar  
    24    12    26 1   
    25    13    14 ar  
    26    13    27 1   
    27    14    15 ar  
    28    14    19 1   
    29    15    16 ar  
    30    15    28 1   
    31    16    29 1   
    32    18    30 1   
    33    19    31 1   
@<TRIPOS>SUBSTRUCTURE
     1 DFV         1 TEMP              0 ****  ****    0 ROOT
