@<TRIPOS>MOLECULE
DFV
   31    33     1     0     0
SMALL
No Charge or Current Charge


@<TRIPOS>ATOM
      1 C1           1.3470     0.2530    -3.9830 ca         1 DFV       0.206100
      2 C2           0.0810     0.0220    -4.5370 ca         1 DFV      -0.198000
      3 C3          -1.0320    -0.1690    -3.7010 ca         1 DFV       0.018000
      4 C4          -0.8710    -0.1240    -2.3020 ca         1 DFV      -0.308600
      5 C5           0.4000     0.1290    -1.7550 ca         1 DFV       0.228100
      6 C6           1.5080     0.3050    -2.5940 ca         1 DFV      -0.271000
      7 C7          -2.0270    -0.3560    -1.3830 c          1 DFV       0.599700
      8 C8          -1.6780    -0.5630     0.0790 c6         1 DFV      -0.215400
      9 C9          -0.5510     0.4020     0.4650 c6         1 DFV       0.238600
     10 O1           0.5880     0.2000    -0.3940 os         1 DFV      -0.339100
     11 C10         -0.1050     0.2350     1.9210 ca         1 DFV      -0.135300
     12 C11          0.5720    -0.9310     2.3360 ca         1 DFV      -0.045500
     13 C12          0.9730    -1.0760     3.6750 ca         1 DFV      -0.180000
     14 C13          0.7040    -0.0620     4.6050 ca         1 DFV       0.152100
     15 C14          0.0320     1.1020     4.2000 ca         1 DFV      -0.180000
     16 C15         -0.3710     1.2510     2.8610 ca         1 DFV      -0.045500
     17 O2          -3.1880    -0.3360    -1.7700 o          1 DFV      -0.526100
     18 O3           2.4180     0.4310    -4.8020 oh         1 DFV      -0.524100
     19 O4           1.0980    -0.2140     5.9000 oh         1 DFV      -0.530100
     20 H2          -0.0390    -0.0160    -5.6160 ha         1 DFV       0.136000
     21 H3          -2.0090    -0.3600    -4.1430 ha         1 DFV       0.135000
     22 H6           2.4840     0.4900    -2.1540 ha         1 DFV       0.132000
     23 H81         -1.2700    -1.5770     0.1670 hc         1 DFV       0.084700
     24 H82         -2.5700    -0.4730     0.7120 hc         1 DFV       0.084700
     25 H9          -0.9060     1.4330     0.3140 h1         1 DFV       0.056700
     26 H11          0.7880    -1.7220     1.6220 ha         1 DFV       0.118500
     27 H12          1.4950    -1.9760     3.9900 ha         1 DFV       0.124500
     28 H14         -0.1810     1.8940     4.9140 ha         1 DFV       0.124500
     29 H15         -0.8930     2.1570     2.5570 ha         1 DFV       0.118500
     30 HO3          3.2080     0.5780    -4.2400 ho         1 DFV       0.472000
     31 HO4          0.8290     0.5860     6.4020 ho         1 DFV       0.467000
@<TRIPOS>BOND
     1     1     2 ar  
     2     1     6 ar  
     3     1    18 1   
     4     2     3 ar  
     5     2    20 1   
     6     3     4 ar  
     7     3    21 1   
     8     4     5 ar  
     9     4     7 1   
    10     5     6 ar  
    11     5    10 1   
    12     6    22 1   
    13     7     8 1   
    14     7    17 2   
    15     8     9 1   
    16     8    23 1   
    17     8    24 1   
    18     9    10 1   
    19     9    11 1   
    20     9    25 1   
    21    11    12 ar  
    22    11    16 ar  
    23    12    13 ar  
    24    12    26 1   
    25    13    14 ar  
    26    13    27 1   
    27    14    15 ar  
    28    14    19 1   
    29    15    16 ar  
    30    15    28 1   
    31    16    29 1   
    32    18    30 1   
    33    19    31 1   
@<TRIPOS>SUBSTRUCTURE
     1 DFV         1 TEMP              0 ****  ****    0 ROOT
