@<TRIPOS>MOLECULE
DFW
   40    43     1     0     0
SMALL
No Charge or Current Charge


@<TRIPOS>ATOM
      1 C2          -3.8150    -0.2180     1.6060 ca         1 DFW       0.186900
      2 C10         -1.0130    -0.0070    -1.7960 cc         1 DFW       0.024900
      3 C11         -0.3710     0.0310    -3.1110 ca         1 DFW      -0.005800
      4 C12         -0.8550     0.9120    -4.0980 ca         1 DFW      -0.090000
      5 C13         -0.2580     0.9560    -5.3700 ca         1 DFW      -0.119000
      6 C14          0.8240     0.1110    -5.6680 ca         1 DFW      -0.118000
      7 C15          1.3040    -0.7810    -4.6950 ca         1 DFW      -0.119000
      8 C16          0.7060    -0.8250    -3.4240 ca         1 DFW      -0.090000
      9 C19          1.8950     0.8190    -1.0050 ca         1 DFW      -0.091500
     10 C20          3.2760     0.8840    -0.7520 ca         1 DFW      -0.102000
     11 C21          3.8540     0.0440     0.2120 ca         1 DFW      -0.103000
     12 C22          3.0500    -0.8670     0.9160 ca         1 DFW      -0.102000
     13 N1          -3.8220    -0.1760     0.2550 nb         1 DFW      -0.260000
     14 C6          -2.6090    -0.1600    -0.3200 ca         1 DFW       0.297300
     15 O6          -2.3970    -0.0530    -1.6770 os         1 DFW      -0.286400
     16 C5          -1.4400    -0.1980     0.4060 ca         1 DFW      -0.301800
     17 C4          -1.5200    -0.1840     1.8060 ca         1 DFW       0.435900
     18 N3          -2.7250    -0.2070     2.4100 nb         1 DFW      -0.303000
     19 C17          1.6690    -0.9300     0.6630 ca         1 DFW      -0.091500
     20 C1          -0.3760    -0.1620    -0.5730 cd         1 DFW       0.003600
     21 C18          1.0720    -0.0760    -0.2880 ca         1 DFW      -0.039800
     22 C23          1.0580     0.2760     4.7240 c          1 DFW       0.712000
     23 C8          -0.3790     0.0960     4.1130 c3         1 DFW       0.052800
     24 O24          1.9390     0.7510     4.0170 o          1 DFW      -0.720500
     25 O3           1.2510    -0.1030     5.8720 o          1 DFW      -0.720500
     26 H2          -4.7850    -0.2370     2.0990 h5         1 DFW       0.033100
     27 H12         -1.6930     1.5680    -3.8730 ha         1 DFW       0.127000
     28 H13         -0.6350     1.6440    -6.1240 ha         1 DFW       0.106000
     29 H14          1.2870     0.1450    -6.6520 ha         1 DFW       0.103000
     30 H15          2.1370    -1.4410    -4.9260 ha         1 DFW       0.106000
     31 H16          1.0780    -1.5270    -2.6820 ha         1 DFW       0.127000
     32 H19          1.4620     1.4870    -1.7460 ha         1 DFW       0.117000
     33 H20          3.8960     1.5870    -1.3030 ha         1 DFW       0.110000
     34 H21          4.9230     0.0920     0.4070 ha         1 DFW       0.105000
     35 H22          3.4990    -1.5330     1.6490 ha         1 DFW       0.110000
     36 H9           0.4680     0.1280     2.1290 hn         1 DFW       0.539000
     37 H17          1.0710    -1.6780     1.1770 ha         1 DFW       0.117000
     38 H8C1        -0.8330    -0.7870     4.5820 h1         1 DFW       0.047700
     39 H8C2        -0.9680     0.9730     4.4130 h1         1 DFW       0.047700
     40 N9          -0.4100    -0.0510     2.6220 nu         1 DFW      -0.845100
@<TRIPOS>BOND
     1     1    13 ar  
     2     1    18 ar  
     3     1    26 1   
     4     2     3 1   
     5     2    15 1   
     6     2    20 2   
     7     3     4 ar  
     8     3     8 ar  
     9     4     5 ar  
    10     4    27 1   
    11     5     6 ar  
    12     5    28 1   
    13     6     7 ar  
    14     6    29 1   
    15     7     8 ar  
    16     7    30 1   
    17     8    31 1   
    18     9    10 ar  
    19     9    21 ar  
    20     9    32 1   
    21    10    11 ar  
    22    10    33 1   
    23    11    12 ar  
    24    11    34 1   
    25    12    19 ar  
    26    12    35 1   
    27    13    14 ar  
    28    14    15 1   
    29    14    16 ar  
    30    16    17 ar  
    31    16    20 1   
    32    17    18 ar  
    33    17    40 1   
    34    19    21 ar  
    35    19    37 1   
    36    20    21 1   
    37    22    23 1   
    38    22    24 1   
    39    22    25 1   
    40    23    38 1   
    41    23    39 1   
    42    23    40 1   
    43    36    40 1   
@<TRIPOS>SUBSTRUCTURE
     1 DFW         1 TEMP              0 ****  ****    0 ROOT
