@<TRIPOS>MOLECULE
DFW
   40    43     1     0     0
SMALL
abcg2


@<TRIPOS>ATOM
      1 C2          -3.7150     0.0210     1.5090 ca         1 DFW       0.186900
      2 C10         -0.8480     0.0000    -1.7530 cc         1 DFW       0.024900
      3 C11         -0.3550    -0.0090    -3.1230 ca         1 DFW      -0.005800
      4 C12         -1.0910     0.5950    -4.1470 ca         1 DFW      -0.090000
      5 C13         -0.6170     0.5860    -5.4500 ca         1 DFW      -0.119000
      6 C14          0.5930    -0.0240    -5.7530 ca         1 DFW      -0.118000
      7 C15          1.3260    -0.6320    -4.7420 ca         1 DFW      -0.119000
      8 C16          0.8560    -0.6310    -3.4380 ca         1 DFW      -0.090000
      9 C19          2.0100     1.0490    -0.7140 ca         1 DFW      -0.091500
     10 C20          3.3740     1.0560    -0.4650 ca         1 DFW      -0.102000
     11 C21          3.9610     0.0080     0.2340 ca         1 DFW      -0.103000
     12 C22          3.1780    -1.0460     0.6810 ca         1 DFW      -0.102000
     13 N1          -3.7000     0.0320     0.1840 nb         1 DFW      -0.260000
     14 C6          -2.4660     0.0130    -0.2880 ca         1 DFW       0.297300
     15 O6          -2.2080     0.0280    -1.6010 os         1 DFW      -0.286400
     16 C5          -1.2870    -0.0200     0.4300 ca         1 DFW      -0.301800
     17 C4          -1.4370     0.0020     1.8390 ca         1 DFW       0.435900
     18 N3          -2.6830     0.0100     2.3390 nb         1 DFW      -0.303000
     19 C17          1.8140    -1.0580     0.4260 ca         1 DFW      -0.091500
     20 C1          -0.2280    -0.0230    -0.5400 cd         1 DFW       0.003600
     21 C18          1.2180    -0.0120    -0.2760 ca         1 DFW      -0.039800
     22 C23          0.8640     0.0780     4.7720 c          1 DFW       0.712000
     23 C8          -0.5320     0.0460     4.1180 c3         1 DFW       0.052800
     24 O24          1.8450     0.0950     4.0060 o          1 DFW      -0.720500
     25 O3           0.8650     0.0850     6.0160 o          1 DFW      -0.720500
     26 H2          -4.6950     0.0260     1.9750 h5         1 DFW       0.033100
     27 H12         -2.0300     1.0860    -3.9290 ha         1 DFW       0.127000
     28 H13         -1.1960     1.0610    -6.2310 ha         1 DFW       0.106000
     29 H14          0.9610    -0.0290    -6.7700 ha         1 DFW       0.103000
     30 H15          2.2640    -1.1210    -4.9700 ha         1 DFW       0.106000
     31 H16          1.4250    -1.1320    -2.6680 ha         1 DFW       0.127000
     32 H19          1.5530     1.8730    -1.2480 ha         1 DFW       0.117000
     33 H20          3.9780     1.8840    -0.8120 ha         1 DFW       0.110000
     34 H21          5.0250     0.0170     0.4320 ha         1 DFW       0.105000
     35 H22          3.6280    -1.8640     1.2280 ha         1 DFW       0.110000
     36 H9           0.5440     0.0350     2.3480 hn         1 DFW       0.539000
     37 H17          1.2120    -1.8930     0.7650 ha         1 DFW       0.117000
     38 H8C1        -1.0780    -0.8310     4.4790 h1         1 DFW       0.047700
     39 H8C2        -1.1020     0.9200     4.4490 h1         1 DFW       0.047700
     40 N9          -0.4110     0.0220     2.6830 nu         1 DFW      -0.845100
@<TRIPOS>BOND
     1     1    13 ar  
     2     1    18 ar  
     3     1    26 1   
     4     2     3 1   
     5     2    15 1   
     6     2    20 2   
     7     3     4 ar  
     8     3     8 ar  
     9     4     5 ar  
    10     4    27 1   
    11     5     6 ar  
    12     5    28 1   
    13     6     7 ar  
    14     6    29 1   
    15     7     8 ar  
    16     7    30 1   
    17     8    31 1   
    18     9    10 ar  
    19     9    21 ar  
    20     9    32 1   
    21    10    11 ar  
    22    10    33 1   
    23    11    12 ar  
    24    11    34 1   
    25    12    19 ar  
    26    12    35 1   
    27    13    14 ar  
    28    14    15 1   
    29    14    16 ar  
    30    16    17 ar  
    31    16    20 1   
    32    17    18 ar  
    33    17    40 1   
    34    19    21 ar  
    35    19    37 1   
    36    20    21 1   
    37    22    23 1   
    38    22    24 1   
    39    22    25 1   
    40    23    38 1   
    41    23    39 1   
    42    23    40 1   
    43    36    40 1   
@<TRIPOS>SUBSTRUCTURE
     1 DFW         1 TEMP              0 ****  ****    0 ROOT
