@<TRIPOS>MOLECULE
DFX
   18    18     1     0     0
SMALL
No Charge or Current Charge


@<TRIPOS>ATOM
      1 C1          -1.1150     1.5100     0.1350 c6         1 DFX       0.127600
      2 C2          -1.2430     0.0300    -0.3040 c6         1 DFX       0.115300
      3 C3          -0.0380    -0.8120     0.2100 c6         1 DFX       0.152300
      4 C4           1.3130    -0.1320    -0.2020 c6         1 DFX       0.141300
      5 C5           1.3030     1.3640     0.2350 c6         1 DFX       0.110600
      6 O3          -0.1220    -2.1640    -0.2910 oh         1 DFX      -0.639000
      7 O4           2.4450    -0.8140     0.3830 oh         1 DFX      -0.700000
      8 O5           0.1510     2.0480    -0.3110 os         1 DFX      -0.434000
      9 F2          -2.4330    -0.5000     0.2420 f          1 DFX      -0.266000
     10 H1          -1.9310     2.1010    -0.3040 h1         1 DFX       0.063700
     11 H12         -1.1820     1.5920     1.2290 h1         1 DFX       0.063700
     12 H2          -1.3160    -0.0290    -1.4000 h1         1 DFX       0.077700
     13 H3          -0.0830    -0.8220     1.3100 h1         1 DFX       0.054700
     14 H4           1.3850    -0.1610    -1.3000 h1         1 DFX       0.055700
     15 H51          1.2840     1.4420     1.3320 h1         1 DFX       0.057200
     16 H52          2.2120     1.8650    -0.1270 h1         1 DFX       0.057200
     17 HO3         -0.9930    -2.5140    -0.0000 ho         1 DFX       0.455000
     18 HO4          3.2120    -0.6710    -0.2200 ho         1 DFX       0.507000
@<TRIPOS>BOND
     1     1     2 1   
     2     1     8 1   
     3     1    10 1   
     4     1    11 1   
     5     2     3 1   
     6     2     9 1   
     7     2    12 1   
     8     3     4 1   
     9     3     6 1   
    10     3    13 1   
    11     4     5 1   
    12     4     7 1   
    13     4    14 1   
    14     5     8 1   
    15     5    15 1   
    16     5    16 1   
    17     6    17 1   
    18     7    18 1   
@<TRIPOS>SUBSTRUCTURE
     1 DFX         1 TEMP              0 ****  ****    0 ROOT
