@<TRIPOS>MOLECULE
DFX
   18    18     1     0     0
SMALL
abcg2


@<TRIPOS>ATOM
      1 C1          -1.0630     1.5020     0.1470 c6         1 DFX       0.127600
      2 C2          -1.2100     0.0560    -0.2990 c6         1 DFX       0.115300
      3 C3          -0.0520    -0.7970     0.1920 c6         1 DFX       0.152300
      4 C4           1.2530    -0.1420    -0.2360 c6         1 DFX       0.141300
      5 C5           1.2590     1.3240     0.1990 c6         1 DFX       0.110600
      6 O3          -0.0960    -2.1000    -0.3310 oh         1 DFX      -0.639000
      7 O4           2.3160    -0.8430     0.3600 oh         1 DFX      -0.700000
      8 O5           0.1550     2.0260    -0.3240 os         1 DFX      -0.434000
      9 F2          -2.4020    -0.4480     0.2260 f          1 DFX      -0.266000
     10 H1          -1.8670     2.1140    -0.2640 h1         1 DFX       0.063700
     11 H12         -1.1210     1.5570     1.2440 h1         1 DFX       0.063700
     12 H2          -1.2840    -0.0020    -1.3900 h1         1 DFX       0.077700
     13 H3          -0.0840    -0.8060     1.2940 h1         1 DFX       0.054700
     14 H4           1.3180    -0.1820    -1.3340 h1         1 DFX       0.055700
     15 H51          1.2740     1.3770     1.2980 h1         1 DFX       0.057200
     16 H52          2.1590     1.8200    -0.1700 h1         1 DFX       0.057200
     17 HO3         -0.8440    -2.5630     0.0580 ho         1 DFX       0.455000
     18 HO4          3.1360    -0.5580    -0.0530 ho         1 DFX       0.507000
@<TRIPOS>BOND
     1     1     2 1   
     2     1     8 1   
     3     1    10 1   
     4     1    11 1   
     5     2     3 1   
     6     2     9 1   
     7     2    12 1   
     8     3     4 1   
     9     3     6 1   
    10     3    13 1   
    11     4     5 1   
    12     4     7 1   
    13     4    14 1   
    14     5     8 1   
    15     5    15 1   
    16     5    16 1   
    17     6    17 1   
    18     7    18 1   
@<TRIPOS>SUBSTRUCTURE
     1 DFX         1 TEMP              0 ****  ****    0 ROOT
