@<TRIPOS>MOLECULE
DFY
   45    48     1     0     0
SMALL
No Charge or Current Charge


@<TRIPOS>ATOM
      1 C2          -3.2590    -0.1690    -2.4860 ca         1 DFY       0.183900
      2 C10         -1.2070    -0.0170     1.4170 cc         1 DFY       0.081900
      3 C11         -0.8500     0.1840     2.8220 ca         1 DFY      -0.038800
      4 C12         -1.5500    -0.5150     3.8250 ca         1 DFY      -0.080500
      5 C13         -1.2290    -0.3260     5.1810 ca         1 DFY      -0.116500
      6 C14         -0.2120     0.5710     5.5450 ca         1 DFY      -0.097000
      7 C15          0.4800     1.2840     4.5520 ca         1 DFY      -0.116500
      8 C16          0.1590     1.0960     3.1960 ca         1 DFY      -0.080500
      9 C19          1.7600    -0.9680     1.4470 ca         1 DFY      -0.094000
     10 C20          3.1600    -1.0790     1.5140 ca         1 DFY      -0.114500
     11 C21          3.9640    -0.4490     0.5510 ca         1 DFY      -0.108000
     12 C22          3.3640     0.2970    -0.4760 ca         1 DFY      -0.114500
     13 N1          -3.5280    -0.0070    -1.1740 nb         1 DFY      -0.204000
     14 C6          -2.4540    -0.0170    -0.3680 ca         1 DFY       0.285300
     15 O6          -2.5280     0.0780     1.0040 os         1 DFY      -0.272400
     16 C5          -1.1660    -0.1670    -0.8360 ca         1 DFY      -0.263800
     17 C4          -0.9730    -0.3920    -2.2180 ca         1 DFY       0.445900
     18 N3          -2.0440    -0.3770    -3.0430 nb         1 DFY      -0.307000
     19 C17          1.9640     0.4050    -0.5410 ca         1 DFY      -0.094000
     20 C1          -0.3270    -0.0950     0.3470 cd         1 DFY      -0.034400
     21 C18          1.1450    -0.2360     0.4080 ca         1 DFY      -0.035800
     22 C23          0.5150     1.2100    -4.4900 c3         1 DFY       0.141600
     23 C8           0.5900    -0.3210    -4.2040 c3         1 DFY       0.227800
     24 O24          1.5750     1.9370    -3.8370 oh         1 DFY      -0.663000
     25 CAA          0.9430    -1.9780    -2.3390 c3         1 DFY       0.217100
     26 H2          -4.1120    -0.1600    -3.1630 h5         1 DFY       0.049100
     27 H12         -2.3400    -1.2110     3.5500 ha         1 DFY       0.125000
     28 H13         -1.7700    -0.8750     5.9490 ha         1 DFY       0.115500
     29 H14          0.0370     0.7180     6.5940 ha         1 DFY       0.114000
     30 H15          1.2640     1.9850     4.8320 ha         1 DFY       0.115500
     31 H16          0.6930     1.6610     2.4360 ha         1 DFY       0.125000
     32 H19          1.1550    -1.4760     2.1930 ha         1 DFY       0.121500
     33 H20          3.6210    -1.6560     2.3130 ha         1 DFY       0.114500
     34 H21          5.0470    -0.5330     0.6030 ha         1 DFY       0.113000
     35 H22          3.9810     0.7980    -1.2180 ha         1 DFY       0.114500
     36 H17          1.5140     1.0100    -1.3220 ha         1 DFY       0.121500
     37 H231        -0.4640     1.5940    -4.1740 h1         1 DFY       0.031700
     38 H232         0.5850     1.3570    -5.5760 h1         1 DFY       0.031700
     39 H8C1         1.6070    -0.6530    -4.4570 h1         1 DFY       0.066200
     40 H8C2        -0.0780    -0.8280    -4.9130 h1         1 DFY       0.066200
     41 H24          1.4420     2.8880    -4.0470 ho         1 DFY       0.443000
     42 HAA1         0.5570    -2.2970    -1.3620 h1         1 DFY       0.049033
     43 HAA2         0.7990    -2.8060    -3.0460 h1         1 DFY       0.049033
     44 HAA3         2.0200    -1.7930    -2.2340 h1         1 DFY       0.049033
     45 N9           0.2490    -0.7620    -2.8170 nh         1 DFY      -0.766300
@<TRIPOS>BOND
     1     1    13 ar  
     2     1    18 ar  
     3     1    26 1   
     4     2     3 1   
     5     2    15 1   
     6     2    20 2   
     7     3     4 ar  
     8     3     8 ar  
     9     4     5 ar  
    10     4    27 1   
    11     5     6 ar  
    12     5    28 1   
    13     6     7 ar  
    14     6    29 1   
    15     7     8 ar  
    16     7    30 1   
    17     8    31 1   
    18     9    10 ar  
    19     9    21 ar  
    20     9    32 1   
    21    10    11 ar  
    22    10    33 1   
    23    11    12 ar  
    24    11    34 1   
    25    12    19 ar  
    26    12    35 1   
    27    13    14 ar  
    28    14    15 1   
    29    14    16 ar  
    30    16    17 ar  
    31    16    20 1   
    32    17    18 ar  
    33    17    45 1   
    34    19    21 ar  
    35    19    36 1   
    36    20    21 1   
    37    22    23 1   
    38    22    24 1   
    39    22    37 1   
    40    22    38 1   
    41    23    39 1   
    42    23    40 1   
    43    23    45 1   
    44    24    41 1   
    45    25    42 1   
    46    25    43 1   
    47    25    44 1   
    48    25    45 1   
@<TRIPOS>SUBSTRUCTURE
     1 DFY         1 TEMP              0 ****  ****    0 ROOT
