@<TRIPOS>MOLECULE
DFY
   45    48     1     0     0
SMALL
abcg2


@<TRIPOS>ATOM
      1 C2          -3.2460     0.0400    -2.3160 ca         1 DFY       0.183900
      2 C10         -1.0520    -0.0370     1.4170 cc         1 DFY       0.081900
      3 C11         -0.8370     0.1450     2.8480 ca         1 DFY      -0.038800
      4 C12         -1.7630    -0.3610     3.7650 ca         1 DFY      -0.080500
      5 C13         -1.5690    -0.1870     5.1270 ca         1 DFY      -0.116500
      6 C14         -0.4530     0.4950     5.5940 ca         1 DFY      -0.097000
      7 C15          0.4640     1.0110     4.6880 ca         1 DFY      -0.116500
      8 C16          0.2740     0.8430     3.3260 ca         1 DFY      -0.080500
      9 C19          1.9470    -1.1060     1.2140 ca         1 DFY      -0.094000
     10 C20          3.3320    -1.0730     1.2720 ca         1 DFY      -0.114500
     11 C21          4.0390    -0.1320     0.5330 ca         1 DFY      -0.108000
     12 C22          3.3530     0.7730    -0.2660 ca         1 DFY      -0.114500
     13 N1          -3.4760     0.0450    -1.0120 nb         1 DFY      -0.204000
     14 C6          -2.3620    -0.1000    -0.3240 ca         1 DFY       0.285300
     15 O6          -2.3560     0.0020     1.0070 os         1 DFY      -0.272400
     16 C5          -1.0720    -0.2900    -0.8050 ca         1 DFY      -0.263800
     17 C4          -0.9910    -0.4460    -2.2160 ca         1 DFY       0.445900
     18 N3          -2.0980    -0.1820    -2.9290 nb         1 DFY      -0.307000
     19 C17          1.9670     0.7400    -0.3240 ca         1 DFY      -0.094000
     20 C1          -0.2160    -0.2100     0.3570 cd         1 DFY      -0.034400
     21 C18          1.2530    -0.1980     0.4180 ca         1 DFY      -0.035800
     22 C23          0.5130     0.8480    -4.6490 c3         1 DFY       0.141600
     23 C8           0.1770    -0.5960    -4.3320 c3         1 DFY       0.227800
     24 O24          1.7510     1.1670    -4.0600 oh         1 DFY      -0.663000
     25 CAA          1.1490    -1.6500    -2.3270 c3         1 DFY       0.217100
     26 H2          -4.1000     0.2280    -2.9580 h5         1 DFY       0.049100
     27 H12         -2.6340    -0.9030     3.4210 ha         1 DFY       0.125000
     28 H13         -2.2920    -0.5890     5.8240 ha         1 DFY       0.115500
     29 H14         -0.3020     0.6290     6.6570 ha         1 DFY       0.114000
     30 H15          1.3290     1.5560     5.0420 ha         1 DFY       0.115500
     31 H16          0.9860     1.2730     2.6340 ha         1 DFY       0.125000
     32 H19          1.3990    -1.8480     1.7830 ha         1 DFY       0.121500
     33 H20          3.8620    -1.7870     1.8900 ha         1 DFY       0.114500
     34 H21          5.1200    -0.1070     0.5780 ha         1 DFY       0.113000
     35 H22          3.8980     1.5040    -0.8480 ha         1 DFY       0.114500
     36 H17          1.4390     1.4410    -0.9590 ha         1 DFY       0.121500
     37 H231        -0.2910     1.4950    -4.2790 h1         1 DFY       0.031700
     38 H232         0.5340     0.9590    -5.7420 h1         1 DFY       0.031700
     39 H8C1         0.9510    -1.2510    -4.7330 h1         1 DFY       0.066200
     40 H8C2        -0.7570    -0.8610    -4.8270 h1         1 DFY       0.066200
     41 H24          1.8660     2.1200    -4.0930 ho         1 DFY       0.443000
     42 HAA1         0.8760    -2.0060    -1.3380 h1         1 DFY       0.049033
     43 HAA2         1.2980    -2.5290    -2.9560 h1         1 DFY       0.049033
     44 HAA3         2.0930    -1.1130    -2.2610 h1         1 DFY       0.049033
     45 N9           0.0950    -0.8420    -2.9000 nh         1 DFY      -0.766300
@<TRIPOS>BOND
     1     1    13 ar  
     2     1    18 ar  
     3     1    26 1   
     4     2     3 1   
     5     2    15 1   
     6     2    20 2   
     7     3     4 ar  
     8     3     8 ar  
     9     4     5 ar  
    10     4    27 1   
    11     5     6 ar  
    12     5    28 1   
    13     6     7 ar  
    14     6    29 1   
    15     7     8 ar  
    16     7    30 1   
    17     8    31 1   
    18     9    10 ar  
    19     9    21 ar  
    20     9    32 1   
    21    10    11 ar  
    22    10    33 1   
    23    11    12 ar  
    24    11    34 1   
    25    12    19 ar  
    26    12    35 1   
    27    13    14 ar  
    28    14    15 1   
    29    14    16 ar  
    30    16    17 ar  
    31    16    20 1   
    32    17    18 ar  
    33    17    45 1   
    34    19    21 ar  
    35    19    36 1   
    36    20    21 1   
    37    22    23 1   
    38    22    24 1   
    39    22    37 1   
    40    22    38 1   
    41    23    39 1   
    42    23    40 1   
    43    23    45 1   
    44    24    41 1   
    45    25    42 1   
    46    25    43 1   
    47    25    44 1   
    48    25    45 1   
@<TRIPOS>SUBSTRUCTURE
     1 DFY         1 TEMP              0 ****  ****    0 ROOT
