@<TRIPOS>MOLECULE
DFZ
   43    46     1     0     0
SMALL
No Charge or Current Charge


@<TRIPOS>ATOM
      1 C2          -3.6110    -0.1170     2.2810 ca         1 DFZ       0.183900
      2 C10         -1.1370    -0.0180    -1.5000 cc         1 DFZ      -0.010300
      3 C11         -0.5580     0.0700    -2.8430 ca         1 DFZ      -0.038800
      4 C12         -1.0750     0.9990    -3.7680 ca         1 DFZ      -0.096000
      5 C13         -0.5420     1.0860    -5.0660 ca         1 DFZ      -0.110000
      6 C14          0.5080     0.2370    -5.4540 ca         1 DFZ      -0.104000
      7 C15          1.0190    -0.7030    -4.5450 ca         1 DFZ      -0.110000
      8 C16          0.4850    -0.7900    -3.2470 ca         1 DFZ      -0.096000
      9 C19          1.6490    -1.1880     0.6950 ca         1 DFZ      -0.103000
     10 C20          3.0470    -1.2050     0.8470 ca         1 DFZ      -0.112500
     11 C21          3.8390    -0.2730     0.1570 ca         1 DFZ      -0.109000
     12 C22          3.2320     0.6670    -0.6910 ca         1 DFZ      -0.112500
     13 N1          -3.7830    -0.0290     0.9430 nb         1 DFZ      -0.237000
     14 C6          -2.6610    -0.0780     0.2040 ca         1 DFZ       0.153500
     15 C5          -1.4160    -0.2270     0.7800 ca         1 DFZ      -0.250800
     16 C4          -1.3200    -0.2560     2.1830 ca         1 DFZ       0.438900
     17 N3          -2.4340    -0.2110     2.9390 nb         1 DFZ      -0.310000
     18 N90         -2.4940     0.0500    -1.1610 na         1 DFZ      -0.308400
     19 C17          1.8350     0.6800    -0.8410 ca         1 DFZ      -0.103000
     20 C1          -0.4430    -0.2380    -0.3130 cd         1 DFZ      -0.038400
     21 C18          1.0260    -0.2360    -0.1370 ca         1 DFZ      -0.025800
     22 C23          1.6330    -0.0090     4.6350 c3         1 DFZ       0.140600
     23 C8           0.1190     0.0460     4.2860 c3         1 DFZ       0.226800
     24 O24          2.4030     0.8490     3.7680 oh         1 DFZ      -0.665000
     25 H2          -4.5120    -0.0820     2.8920 h5         1 DFZ       0.042100
     26 H12         -1.8860     1.6630    -3.4770 ha         1 DFZ       0.119000
     27 H13         -0.9430     1.8120    -5.7700 ha         1 DFZ       0.115500
     28 H14          0.9200     0.3040    -6.4580 ha         1 DFZ       0.114000
     29 H15          1.8260    -1.3670    -4.8450 ha         1 DFZ       0.115500
     30 H16          0.8790    -1.5330    -2.5580 ha         1 DFZ       0.119000
     31 H19          1.0520    -1.9440     1.2000 ha         1 DFZ       0.120500
     32 H20          3.5150    -1.9460     1.4910 ha         1 DFZ       0.111500
     33 H21          4.9210    -0.2860     0.2730 ha         1 DFZ       0.112000
     34 H22          3.8440     1.3860    -1.2310 ha         1 DFZ       0.111500
     35 H9           0.6980    -0.0880     2.2500 hn         1 DFZ       0.516000
     36 H90         -3.2540     0.1740    -1.8180 hn         1 DFZ       0.364000
     37 H17          1.3800     1.4220    -1.4930 ha         1 DFZ       0.120500
     38 H231         1.9790    -1.0470     4.5380 h1         1 DFZ       0.031200
     39 H232         1.7650     0.2870     5.6840 h1         1 DFZ       0.031200
     40 H8C1        -0.4150    -0.6830     4.9110 h1         1 DFZ       0.064200
     41 H8C2        -0.2650     1.0440     4.5390 h1         1 DFZ       0.064200
     42 H24          3.3430     0.7640     4.0410 ho         1 DFZ       0.447000
     43 N9          -0.1110    -0.2380     2.8540 nu         1 DFZ      -0.918100
@<TRIPOS>BOND
     1     1    13 ar  
     2     1    17 ar  
     3     1    25 1   
     4     2     3 1   
     5     2    18 1   
     6     2    20 2   
     7     3     4 ar  
     8     3     8 ar  
     9     4     5 ar  
    10     4    26 1   
    11     5     6 ar  
    12     5    27 1   
    13     6     7 ar  
    14     6    28 1   
    15     7     8 ar  
    16     7    29 1   
    17     8    30 1   
    18     9    10 ar  
    19     9    21 ar  
    20     9    31 1   
    21    10    11 ar  
    22    10    32 1   
    23    11    12 ar  
    24    11    33 1   
    25    12    19 ar  
    26    12    34 1   
    27    13    14 ar  
    28    14    15 ar  
    29    14    18 1   
    30    15    16 ar  
    31    15    20 1   
    32    16    17 ar  
    33    16    43 1   
    34    18    36 1   
    35    19    21 ar  
    36    19    37 1   
    37    20    21 1   
    38    22    23 1   
    39    22    24 1   
    40    22    38 1   
    41    22    39 1   
    42    23    40 1   
    43    23    41 1   
    44    23    43 1   
    45    24    42 1   
    46    35    43 1   
@<TRIPOS>SUBSTRUCTURE
     1 DFZ         1 TEMP              0 ****  ****    0 ROOT
