@<TRIPOS>MOLECULE
DFZ
   43    46     1     0     0
SMALL
bcc


@<TRIPOS>ATOM
      1 C2          -3.5000     0.0340     2.1650 ca         1 DFZ       0.709900
      2 C10         -0.9990     0.0020    -1.4560 cc         1 DFZ      -0.010300
      3 C11         -0.5650    -0.0060    -2.8520 ca         1 DFZ      -0.038800
      4 C12         -1.2670     0.7230    -3.8150 ca         1 DFZ      -0.114000
      5 C13         -0.8630     0.7150    -5.1420 ca         1 DFZ      -0.128000
      6 C14          0.2510    -0.0190    -5.5280 ca         1 DFZ      -0.122000
      7 C15          0.9530    -0.7510    -4.5780 ca         1 DFZ      -0.128000
      8 C16          0.5470    -0.7500    -3.2530 ca         1 DFZ      -0.114000
      9 C19          1.8470    -1.0520     0.5300 ca         1 DFZ      -0.121000
     10 C20          3.2280    -1.0500     0.6640 ca         1 DFZ      -0.130500
     11 C21          3.9830    -0.0360     0.0900 ca         1 DFZ      -0.127000
     12 C22          3.3470     0.9790    -0.6140 ca         1 DFZ      -0.130500
     13 N1          -3.6580     0.0400     0.8580 nb         1 DFZ      -0.763000
     14 C6          -2.4940     0.0260     0.2020 ca         1 DFZ       0.481800
     15 C5          -1.2220    -0.0080     0.7790 ca         1 DFZ      -0.381400
     16 C4          -1.2020     0.0300     2.1940 ca         1 DFZ       0.767200
     17 N3          -2.3620     0.0390     2.8570 nb         1 DFZ      -0.836000
     18 N90         -2.3380     0.0440    -1.1400 na         1 DFZ      -0.258100
     19 C17          1.9660     0.9840    -0.7370 ca         1 DFZ      -0.121000
     20 C1          -0.2680    -0.0270    -0.2890 cd         1 DFZ      -0.038400
     21 C18          1.1970    -0.0320    -0.1680 ca         1 DFZ      -0.025800
     22 C23          1.3490    -0.3990     4.8090 c3         1 DFZ       0.117400
     23 C8           0.0200     0.1450     4.3330 c3         1 DFZ       0.226800
     24 O24          2.3860     0.3470     4.2070 oh         1 DFZ      -0.602800
     25 H2          -4.4080     0.0340     2.7600 h5         1 DFZ       0.042100
     26 H12         -2.1260     1.3190    -3.5300 ha         1 DFZ       0.137000
     27 H13         -1.4150     1.2900    -5.8720 ha         1 DFZ       0.133500
     28 H14          0.5680    -0.0230    -6.5630 ha         1 DFZ       0.132000
     29 H15          1.8170    -1.3330    -4.8710 ha         1 DFZ       0.133500
     30 H16          1.0890    -1.3430    -2.5290 ha         1 DFZ       0.137000
     31 H19          1.2670    -1.8580     0.9630 ha         1 DFZ       0.138500
     32 H20          3.7140    -1.8470     1.2120 ha         1 DFZ       0.129500
     33 H21          5.0610    -0.0360     0.1920 ha         1 DFZ       0.130000
     34 H22          3.9280     1.7740    -1.0630 ha         1 DFZ       0.129500
     35 H9           0.8020     0.1800     2.3900 hn         1 DFZ       0.460800
     36 H90         -3.0940    -0.0090    -1.8050 hn         1 DFZ       0.313700
     37 H17          1.4740     1.7870    -1.2720 ha         1 DFZ       0.138500
     38 H231         1.4160    -1.4610     4.5460 h1         1 DFZ       0.031200
     39 H232         1.3790    -0.3300     5.9030 h1         1 DFZ       0.031200
     40 H8C1        -0.7790    -0.4390     4.7850 h1         1 DFZ       0.064200
     41 H8C2        -0.1090     1.1800     4.6710 h1         1 DFZ       0.064200
     42 H24          3.1970    -0.1670     4.2470 ho         1 DFZ       0.408000
     43 N9          -0.0610     0.0520     2.8940 nu         1 DFZ      -0.862900
@<TRIPOS>BOND
     1     1    13 ar  
     2     1    17 ar  
     3     1    25 1   
     4     2     3 1   
     5     2    18 1   
     6     2    20 2   
     7     3     4 ar  
     8     3     8 ar  
     9     4     5 ar  
    10     4    26 1   
    11     5     6 ar  
    12     5    27 1   
    13     6     7 ar  
    14     6    28 1   
    15     7     8 ar  
    16     7    29 1   
    17     8    30 1   
    18     9    10 ar  
    19     9    21 ar  
    20     9    31 1   
    21    10    11 ar  
    22    10    32 1   
    23    11    12 ar  
    24    11    33 1   
    25    12    19 ar  
    26    12    34 1   
    27    13    14 ar  
    28    14    15 ar  
    29    14    18 1   
    30    15    16 ar  
    31    15    20 1   
    32    16    17 ar  
    33    16    43 1   
    34    18    36 1   
    35    19    21 ar  
    36    19    37 1   
    37    20    21 1   
    38    22    23 1   
    39    22    24 1   
    40    22    38 1   
    41    22    39 1   
    42    23    40 1   
    43    23    41 1   
    44    23    43 1   
    45    24    42 1   
    46    35    43 1   
@<TRIPOS>SUBSTRUCTURE
     1 DFZ         1 TEMP              0 ****  ****    0 ROOT
