@<TRIPOS>MOLECULE
DG2
   18    17     1     0     0
SMALL
abcg2


@<TRIPOS>ATOM
      1 C3          -0.6970    -0.8390     0.4260 c3         1 DG2       0.139300
      2 C4           0.6050    -0.1830     0.8630 c3         1 DG2       0.229600
      3 O2          -1.4170    -0.0180    -0.4500 os         1 DG2      -0.568400
      4 O5           1.4910    -0.0830    -0.2180 os         1 DG2      -0.579400
      5 O9          -2.2520     1.6850     1.2900 o          1 DG2      -0.974833
      6 O10         -3.2220     1.5590    -1.0870 o          1 DG2      -0.974833
      7 O11         -3.7280    -0.2920     0.6230 o          1 DG2      -0.974833
      8 P1          -2.7640     0.7980     0.1540 p5         1 DG2       1.314900
      9 C7          -0.4030    -2.2230    -0.1870 c          1 DG2       0.735000
     10 P6           2.9370     0.7620     0.0240 p5         1 DG2       1.315900
     11 O15          2.5250     2.2040     0.3120 o          1 DG2      -0.974833
     12 O14          3.6200     0.0720     1.2030 o          1 DG2      -0.974833
     13 O13          3.6250     0.5540    -1.3220 o          1 DG2      -0.974833
     14 H1          -1.2650    -1.0250     1.3500 h1         1 DG2      -0.036300
     15 H2           0.3600     0.8040     1.2780 h1         1 DG2      -0.023300
     16 H3           1.0380    -0.7780     1.6770 h1         1 DG2      -0.023300
     17 O7          -0.6820    -2.4230    -1.3820 o          1 DG2      -0.826500
     18 O8           0.0950    -3.0580     0.6030 o          1 DG2      -0.826500
@<TRIPOS>BOND
     1     1     2 1   
     2     1     3 1   
     3     1     9 1   
     4     1    14 1   
     5     2     4 1   
     6     2    15 1   
     7     2    16 1   
     8     3     8 1   
     9     4    10 1   
    10     5     8 1   
    11     6     8 1   
    12     7     8 1   
    13     9    17 1   
    14     9    18 1   
    15    10    11 1   
    16    10    12 1   
    17    10    13 1   
@<TRIPOS>SUBSTRUCTURE
     1 DG2         1 TEMP              0 ****  ****    0 ROOT
