@<TRIPOS>MOLECULE
DG2
   18    17     1     0     0
SMALL
No Charge or Current Charge


@<TRIPOS>ATOM
      1 C3          -0.7190    -0.9230     0.4170 c3         1 DG2       0.139300
      2 C4           0.4980    -0.0510     0.8680 c3         1 DG2       0.229600
      3 O2          -1.6020    -0.1730    -0.4820 os         1 DG2      -0.568400
      4 O5           1.3800     0.2110    -0.2400 os         1 DG2      -0.579400
      5 O9          -2.1890     1.9180     0.8840 o          1 DG2      -0.974833
      6 O10         -3.4790     1.3960    -1.0930 o          1 DG2      -0.974833
      7 O11         -3.7310     0.0360     0.8890 o          1 DG2      -0.974833
      8 P1          -2.7570     0.8090     0.0700 p5         1 DG2       1.314900
      9 C7          -0.2280    -2.3110    -0.1590 c          1 DG2       0.735000
     10 P6           2.8910     0.6900     0.0450 p5         1 DG2       1.315900
     11 O15          2.8930     1.9540     0.8310 o          1 DG2      -0.974833
     12 O14          3.6380    -0.3640     0.7860 o          1 DG2      -0.974833
     13 O13          3.5720     0.9330    -1.2560 o          1 DG2      -0.974833
     14 H1          -1.2810    -1.1600     1.3320 h1         1 DG2      -0.036300
     15 H2           0.1520     0.8900     1.3100 h1         1 DG2      -0.023300
     16 H3           1.0320    -0.5930     1.6600 h1         1 DG2      -0.023300
     17 O7          -0.4730    -2.6260    -1.3220 o          1 DG2      -0.826500
     18 O8           0.2710    -3.1210     0.6180 o          1 DG2      -0.826500
@<TRIPOS>BOND
     1     1     2 1   
     2     1     3 1   
     3     1     9 1   
     4     1    14 1   
     5     2     4 1   
     6     2    15 1   
     7     2    16 1   
     8     3     8 1   
     9     4    10 1   
    10     5     8 1   
    11     6     8 1   
    12     7     8 1   
    13     9    17 1   
    14     9    18 1   
    15    10    11 1   
    16    10    12 1   
    17    10    13 1   
@<TRIPOS>SUBSTRUCTURE
     1 DG2         1 TEMP              0 ****  ****    0 ROOT
