@<TRIPOS>MOLECULE
DG3
   42    44     1     0     0
SMALL
abcg2


@<TRIPOS>ATOM
      1 PG          -1.5670    -1.5100     5.5050 p5         1 DG3       1.361900
      2 O1G         -2.8680    -1.8230     4.7820 o          1 DG3      -0.952833
      3 O2G         -0.7990    -2.7320     5.9870 o          1 DG3      -0.952833
      4 O3G         -1.6390    -0.3590     6.4990 o          1 DG3      -0.952833
      5 O3B         -0.5350    -0.9290     4.2450 os         1 DG3      -0.721800
      6 PB          -0.1790     0.6190     4.0140 p5         1 DG3       1.528800
      7 O1B         -1.3930     1.4620     3.7520 o          1 DG3      -0.904500
      8 O2B          0.8710     1.0960     4.9730 o          1 DG3      -0.904500
      9 O3A          0.5840     0.3610     2.5440 os         1 DG3      -0.687800
     10 PA           0.6260     1.4520     1.3440 p5         1 DG3       1.445800
     11 O1A          1.0230     2.8110     1.8360 o          1 DG3      -0.873000
     12 O2A         -0.5740     1.3160     0.4490 o          1 DG3      -0.873000
     13 O5           1.9240     0.7440     0.6060 os         1 DG3      -0.542400
     14 C5           2.3230     1.2550    -0.6440 c3         1 DG3       0.232600
     15 C4           2.7530     0.1260    -1.5510 c5         1 DG3       0.143300
     16 O4           1.6730    -0.8000    -1.7580 os         1 DG3      -0.386000
     17 C3           3.1640     0.6020    -2.9390 c5         1 DG3      -0.122400
     18 C2           2.7160    -0.5510    -3.8260 c5         1 DG3      -0.126400
     19 C1           1.4590    -1.0270    -3.1100 c5         1 DG3       0.319300
     20 N9           0.2640    -0.2830    -3.5370 na         1 DG3      -0.194500
     21 C8          -0.5860     0.4660    -2.7600 cc         1 DG3       0.493400
     22 N7          -1.5940     0.9390    -3.4340 nd         1 DG3      -0.618000
     23 C7          -1.4140     0.4730    -4.7090 cd         1 DG3       0.108500
     24 C6          -2.2020     0.6480    -5.8810 c          1 DG3       0.517500
     25 O6          -3.2360     1.2810    -6.0240 o          1 DG3      -0.566000
     26 N1          -1.6350    -0.0350    -6.9650 ns         1 DG3      -0.459400
     27 C10         -0.4920    -0.7820    -6.9360 cd         1 DG3       0.653800
     28 N2          -0.0960    -1.3300    -8.0960 nv         1 DG3      -1.072200
     29 N3           0.2260    -0.9460    -5.8550 nc         1 DG3      -0.671100
     30 C9          -0.2680    -0.2980    -4.7870 cc         1 DG3       0.056400
     31 H5'1         3.1720     1.9400    -0.5290 h1         1 DG3       0.000200
     32 H5'2         1.5230     1.8210    -1.1350 h1         1 DG3       0.000200
     33 H4           3.5710    -0.4290    -1.0790 h1         1 DG3       0.058700
     34 H3'1         4.2340     0.7960    -3.0050 hc         1 DG3       0.043200
     35 H3'2         2.6420     1.5240    -3.2090 hc         1 DG3       0.043200
     36 H2'1         3.4490    -1.3600    -3.8110 hc         1 DG3       0.044200
     37 H2'2         2.5450    -0.2760    -4.8640 hc         1 DG3       0.044200
     38 H1           1.2540    -2.0870    -3.2770 h2         1 DG3       0.073700
     39 H8          -0.4240     0.6240    -1.7020 h5         1 DG3       0.178100
     40 HN1         -2.1290     0.0520    -7.8430 hn         1 DG3       0.287500
     41 HN21         0.6570    -1.9960    -8.0600 hn         1 DG3       0.473500
     42 HN22        -0.7270    -1.4100    -8.8750 hn         1 DG3       0.473500
@<TRIPOS>BOND
     1     1     2 1   
     2     1     3 1   
     3     1     4 1   
     4     1     5 1   
     5     5     6 1   
     6     6     7 1   
     7     6     8 1   
     8     6     9 1   
     9     9    10 1   
    10    10    11 1   
    11    10    12 1   
    12    10    13 1   
    13    13    14 1   
    14    14    15 1   
    15    14    31 1   
    16    14    32 1   
    17    15    16 1   
    18    15    17 1   
    19    15    33 1   
    20    16    19 1   
    21    17    18 1   
    22    17    34 1   
    23    17    35 1   
    24    18    19 1   
    25    18    36 1   
    26    18    37 1   
    27    19    20 1   
    28    19    38 1   
    29    20    21 1   
    30    20    30 1   
    31    21    22 2   
    32    21    39 1   
    33    22    23 1   
    34    23    24 1   
    35    23    30 2   
    36    24    25 2   
    37    24    26 1   
    38    26    27 1   
    39    26    40 1   
    40    27    28 1   
    41    27    29 2   
    42    28    41 1   
    43    28    42 1   
    44    29    30 1   
@<TRIPOS>SUBSTRUCTURE
     1 DG3         1 TEMP              0 ****  ****    0 ROOT
