@<TRIPOS>MOLECULE
DG3
   42    44     1     0     0
SMALL
No Charge or Current Charge


@<TRIPOS>ATOM
      1 PG          -0.8020    -2.9940     2.1090 p5         1 DG3       1.361900
      2 O1G         -1.9820    -3.0190     1.2000 o          1 DG3      -0.952833
      3 O2G          0.0330    -4.1890     1.8030 o          1 DG3      -0.952833
      4 O3G         -1.2380    -3.1070     3.5290 o          1 DG3      -0.952833
      5 O3B          0.0890    -1.7260     1.8220 os         1 DG3      -0.721800
      6 PB          -0.2510    -0.3680     2.5630 p5         1 DG3       1.528800
      7 O1B         -1.7000     0.0020     2.4730 o          1 DG3      -0.904500
      8 O2B          0.2900    -0.3680     3.9600 o          1 DG3      -0.904500
      9 O3A          0.6610     0.5110     1.6200 os         1 DG3      -0.687800
     10 PA           0.3850     2.0620     1.6880 p5         1 DG3       1.445800
     11 O1A          0.1330     2.5940     3.0620 o          1 DG3      -0.873000
     12 O2A         -0.6500     2.5320     0.7170 o          1 DG3      -0.873000
     13 O5           1.8550     2.5580     1.2330 os         1 DG3      -0.542400
     14 C5           2.2610     2.6910    -0.1400 c3         1 DG3       0.232600
     15 C4           2.3410     1.3160    -0.8740 c5         1 DG3       0.143300
     16 O4           1.2000     1.1140    -1.7330 os         1 DG3      -0.386000
     17 C3           3.5060     1.1970    -1.8840 c5         1 DG3      -0.122400
     18 C2           3.0680    -0.0860    -2.6360 c5         1 DG3      -0.126400
     19 C1           1.5110     0.0560    -2.6680 c5         1 DG3       0.319300
     20 N9           0.9180     0.3890    -3.9610 na         1 DG3      -0.194500
     21 C8           1.4030     1.3150    -4.8670 cc         1 DG3       0.493400
     22 N7           0.6590     1.3440    -5.9760 nd         1 DG3      -0.618000
     23 C7          -0.3320     0.3890    -5.7800 cd         1 DG3       0.108500
     24 C6          -1.4560    -0.0540    -6.6620 c          1 DG3       0.517500
     25 O6          -1.7100     0.3850    -7.7770 o          1 DG3      -0.566000
     26 N1          -2.2040    -1.0420    -6.0860 ns         1 DG3      -0.459400
     27 C10         -1.9430    -1.5540    -4.8630 cd         1 DG3       0.653800
     28 N2          -2.7520    -2.5070    -4.4290 nv         1 DG3      -1.072200
     29 N3          -0.9760    -1.2080    -4.0460 nc         1 DG3      -0.671100
     30 C9          -0.1720    -0.2040    -4.5480 cc         1 DG3       0.056400
     31 H5'1         3.2570     3.1520    -0.1660 h1         1 DG3       0.000200
     32 H5'2         1.5850     3.3630    -0.6840 h1         1 DG3       0.000200
     33 H4           2.3990     0.5000    -0.1420 h1         1 DG3       0.058700
     34 H3'1         4.4800     1.0880    -1.3950 hc         1 DG3       0.043200
     35 H3'2         3.5590     2.0690    -2.5470 hc         1 DG3       0.043200
     36 H2'1         3.3560    -0.9860    -2.0800 hc         1 DG3       0.044200
     37 H2'2         3.5190    -0.1700    -3.6310 hc         1 DG3       0.044200
     38 H1           1.0450    -0.8820    -2.3390 h2         1 DG3       0.073700
     39 H8           2.2750     1.9280    -4.6610 h5         1 DG3       0.178100
     40 HN1         -2.9720    -1.4010    -6.6300 hn         1 DG3       0.287500
     41 HN21        -2.6560    -2.7170    -3.4430 hn         1 DG3       0.473500
     42 HN22        -3.6960    -2.5260    -4.7950 hn         1 DG3       0.473500
@<TRIPOS>BOND
     1     1     2 1   
     2     1     3 1   
     3     1     4 1   
     4     1     5 1   
     5     5     6 1   
     6     6     7 1   
     7     6     8 1   
     8     6     9 1   
     9     9    10 1   
    10    10    11 1   
    11    10    12 1   
    12    10    13 1   
    13    13    14 1   
    14    14    15 1   
    15    14    31 1   
    16    14    32 1   
    17    15    16 1   
    18    15    17 1   
    19    15    33 1   
    20    16    19 1   
    21    17    18 1   
    22    17    34 1   
    23    17    35 1   
    24    18    19 1   
    25    18    36 1   
    26    18    37 1   
    27    19    20 1   
    28    19    38 1   
    29    20    21 1   
    30    20    30 1   
    31    21    22 2   
    32    21    39 1   
    33    22    23 1   
    34    23    24 1   
    35    23    30 2   
    36    24    25 2   
    37    24    26 1   
    38    26    27 1   
    39    26    40 1   
    40    27    28 1   
    41    27    29 2   
    42    28    41 1   
    43    28    42 1   
    44    29    30 1   
@<TRIPOS>SUBSTRUCTURE
     1 DG3         1 TEMP              0 ****  ****    0 ROOT
