@<TRIPOS>MOLECULE
DG4
   19    18     1     0     0
SMALL
No Charge or Current Charge


@<TRIPOS>ATOM
      1 O2P        -20.9060    -2.3850     4.4500 o          1 DG4      -0.900500
      2 P1         -20.2380    -2.6740     5.7480 p5         1 DG4       1.272900
      3 O4P        -20.2410    -4.1360     6.0200 o          1 DG4      -0.900500
      4 O3P        -18.8220    -2.2210     5.6730 o          1 DG4      -0.900500
      5 O1P        -20.9560    -1.8470     6.9110 os         1 DG4      -0.513500
      6 C1         -21.8830    -2.2700     7.8090 c          1 DG4       0.720100
      7 O1         -22.0480    -1.6210     8.8420 o          1 DG4      -0.677000
      8 C2         -22.8580    -3.4350     7.3900 c3         1 DG4       0.014300
      9 O2         -22.6040    -4.6790     8.1250 oh         1 DG4      -0.695000
     10 C3         -24.3320    -2.9940     7.6310 c3         1 DG4       0.257600
     11 O5P        -24.7330    -2.0480     6.6350 os         1 DG4      -0.565400
     12 P2         -25.6330    -2.5230     5.3860 p5         1 DG4       1.297900
     13 O8P        -25.8120    -1.3690     4.4620 o          1 DG4      -0.942500
     14 O7P        -26.9700    -2.9620     5.8700 o          1 DG4      -0.942500
     15 O6P        -24.9670    -3.6360     4.6570 o          1 DG4      -0.942500
     16 H1         -22.7510    -3.5970     6.3120 h1         1 DG4       0.118700
     17 H2         -23.1570    -5.3790     7.7140 ho         1 DG4       0.389000
     18 H4         -24.9790    -3.8810     7.5990 h1         1 DG4      -0.045800
     19 H3         -24.4420    -2.5560     8.6320 h1         1 DG4      -0.045800
@<TRIPOS>BOND
     1     1     2 1   
     2     2     3 1   
     3     2     4 1   
     4     2     5 1   
     5     5     6 1   
     6     6     7 2   
     7     6     8 1   
     8     8     9 1   
     9     8    10 1   
    10     8    16 1   
    11     9    17 1   
    12    10    11 1   
    13    10    18 1   
    14    10    19 1   
    15    11    12 1   
    16    12    13 1   
    17    12    14 1   
    18    12    15 1   
@<TRIPOS>SUBSTRUCTURE
     1 DG4         1 TEMP              0 ****  ****    0 ROOT
