@<TRIPOS>MOLECULE
DG4
   19    18     1     0     0
SMALL
abcg2


@<TRIPOS>ATOM
      1 O2P        -21.5050    -2.5120     4.5290 o          1 DG4      -0.900500
      2 P1         -20.3840    -2.7230     5.5250 p5         1 DG4       1.272900
      3 O4P        -20.1380    -4.1490     5.9730 o          1 DG4      -0.900500
      4 O3P        -19.1540    -1.8610     5.3500 o          1 DG4      -0.900500
      5 O1P        -21.0430    -1.9270     7.0210 os         1 DG4      -0.513500
      6 C1         -21.9860    -2.3070     7.8240 c          1 DG4       0.720100
      7 O1         -22.1980    -1.7050     8.8630 o          1 DG4      -0.677000
      8 C2         -22.8440    -3.5310     7.4920 c3         1 DG4       0.014300
      9 O2         -22.5380    -4.4920     8.4900 oh         1 DG4      -0.695000
     10 C3         -24.3210    -3.1540     7.5160 c3         1 DG4       0.257600
     11 O5P        -24.5530    -2.0910     6.6450 os         1 DG4      -0.565400
     12 P2         -25.5140    -2.3620     5.2470 p5         1 DG4       1.297900
     13 O8P        -25.2400    -1.0850     4.4650 o          1 DG4      -0.942500
     14 O7P        -26.9350    -2.5030     5.7890 o          1 DG4      -0.942500
     15 O6P        -24.9580    -3.6400     4.6240 o          1 DG4      -0.942500
     16 H1         -22.6060    -3.9110     6.4990 h1         1 DG4       0.118700
     17 H2         -22.9130    -5.3310     8.2070 ho         1 DG4       0.389000
     18 H4         -24.9030    -4.0510     7.2630 h1         1 DG4      -0.045800
     19 H3         -24.6010    -2.8790     8.5430 h1         1 DG4      -0.045800
@<TRIPOS>BOND
     1     1     2 1   
     2     2     3 1   
     3     2     4 1   
     4     2     5 1   
     5     5     6 1   
     6     6     7 2   
     7     6     8 1   
     8     8     9 1   
     9     8    10 1   
    10     8    16 1   
    11     9    17 1   
    12    10    11 1   
    13    10    18 1   
    14    10    19 1   
    15    11    12 1   
    16    12    13 1   
    17    12    14 1   
    18    12    15 1   
@<TRIPOS>SUBSTRUCTURE
     1 DG4         1 TEMP              0 ****  ****    0 ROOT
