@<TRIPOS>MOLECULE
DG6
   28    27     1     0     0
SMALL
abcg2


@<TRIPOS>ATOM
      1 C1           5.1980     0.3640     0.2090 c3         1 DG6       0.157600
      2 O1           6.2520    -0.4690     0.6490 oh         1 DG6      -0.670000
      3 C2           3.9020    -0.4210     0.2870 c3         1 DG6      -0.117400
      4 C3           2.6900     0.4030    -0.1350 c3         1 DG6       0.137300
      5 O3           2.7920     0.8460    -1.4760 oh         1 DG6      -0.714000
      6 C4           1.3810    -0.3580     0.1120 c3         1 DG6       0.102300
      7 O4           1.3730    -1.6070    -0.5520 oh         1 DG6      -0.664000
      8 C5           0.1330     0.4620    -0.2560 c3         1 DG6       0.125300
      9 O5           0.2000     1.7700     0.2690 oh         1 DG6      -0.716000
     10 C6          -1.1450    -0.2470     0.1720 c3         1 DG6       0.225600
     11 O6          -2.2510     0.4080    -0.3680 os         1 DG6      -0.571400
     12 P           -3.7770     0.0270     0.2900 p5         1 DG6       1.272900
     13 O1P         -4.6860     0.8580    -0.6070 o          1 DG6      -0.926167
     14 O2P         -3.9090    -1.4840     0.1250 o          1 DG6      -0.926167
     15 O3P         -3.7100     0.4900     1.7410 o          1 DG6      -0.926167
     16 HC11         5.1150     1.2640     0.8350 h1         1 DG6       0.017700
     17 HC12         5.3670     0.7060    -0.8180 h1         1 DG6       0.017700
     18 HO1          7.0750     0.0210     0.5610 ho         1 DG6       0.425000
     19 HC21         3.9760    -1.3200    -0.3330 hc         1 DG6       0.058200
     20 HC22         3.7530    -0.7610     1.3170 hc         1 DG6       0.058200
     21 HC3          2.6620     1.3100     0.4760 h1         1 DG6       0.079700
     22 HO3          3.0300     0.0950    -2.0310 ho         1 DG6       0.483000
     23 HC4          1.3420    -0.5920     1.1840 h1         1 DG6       0.065700
     24 HO4          1.1970    -1.4600    -1.4880 ho         1 DG6       0.438000
     25 HC5          0.1180     0.5830    -1.3470 h1         1 DG6       0.068700
     26 HO5          0.0330     1.7230     1.2160 ho         1 DG6       0.494000
     27 HC61        -1.1000    -1.2970    -0.1420 h1         1 DG6       0.002200
     28 HC62        -1.1770    -0.2590     1.2740 h1         1 DG6       0.002200
@<TRIPOS>BOND
     1     1     2 1   
     2     1     3 1   
     3     1    16 1   
     4     1    17 1   
     5     2    18 1   
     6     3     4 1   
     7     3    19 1   
     8     3    20 1   
     9     4     5 1   
    10     4     6 1   
    11     4    21 1   
    12     5    22 1   
    13     6     7 1   
    14     6     8 1   
    15     6    23 1   
    16     7    24 1   
    17     8     9 1   
    18     8    10 1   
    19     8    25 1   
    20     9    26 1   
    21    10    11 1   
    22    10    27 1   
    23    10    28 1   
    24    11    12 1   
    25    12    13 1   
    26    12    14 1   
    27    12    15 1   
@<TRIPOS>SUBSTRUCTURE
     1 DG6         1 TEMP              0 ****  ****    0 ROOT
