@<TRIPOS>MOLECULE
DG6
   28    27     1     0     0
SMALL
No Charge or Current Charge


@<TRIPOS>ATOM
      1 C1           5.0480     0.4100    -0.4540 c3         1 DG6       0.157600
      2 O1           6.2960     0.1160     0.1820 oh         1 DG6      -0.670000
      3 C2           3.9010    -0.2680     0.3220 c3         1 DG6      -0.117400
      4 C3           2.4900     0.0500    -0.2370 c3         1 DG6       0.137300
      5 O3           2.3660    -0.5190    -1.5580 oh         1 DG6      -0.714000
      6 C4           1.3450    -0.5130     0.6640 c3         1 DG6       0.102300
      7 O4           1.3460    -1.9430     0.5150 oh         1 DG6      -0.664000
      8 C5          -0.0660     0.0680     0.3190 c3         1 DG6       0.125300
      9 O5          -0.0670     1.5010     0.4890 oh         1 DG6      -0.716000
     10 C6          -1.2030    -0.5960     1.1750 c3         1 DG6       0.225600
     11 O6          -2.4720     0.1010     1.1230 os         1 DG6      -0.571400
     12 P           -3.1160     0.7370    -0.2080 p5         1 DG6       1.272900
     13 O1P         -4.5190     1.1340     0.0840 o          1 DG6      -0.926167
     14 O2P         -2.3330     1.9430    -0.5920 o          1 DG6      -0.926167
     15 O3P         -3.1060    -0.2660    -1.3060 o          1 DG6      -0.926167
     16 HC11         4.8810     1.4950    -0.4740 h1         1 DG6       0.017700
     17 HC12         5.0590     0.0480    -1.4900 h1         1 DG6       0.017700
     18 HO1          6.9960     0.5630    -0.3440 ho         1 DG6       0.425000
     19 HC21         4.0620    -1.3530     0.3280 hc         1 DG6       0.058200
     20 HC22         3.9450     0.0640     1.3660 hc         1 DG6       0.058200
     21 HC3          2.3850     1.1450    -0.2760 h1         1 DG6       0.079700
     22 HO3          2.7630     0.1200    -2.1940 ho         1 DG6       0.483000
     23 HC4          1.5620    -0.2470     1.7080 h1         1 DG6       0.065700
     24 HO4          1.7080    -2.0710    -0.3940 ho         1 DG6       0.438000
     25 HC5         -0.2690    -0.1710    -0.7340 h1         1 DG6       0.068700
     26 HO5         -0.9580     1.7820     0.0920 ho         1 DG6       0.494000
     27 HC61        -1.3410    -1.6320     0.8390 h1         1 DG6       0.002200
     28 HC62        -0.8670    -0.6440     2.2190 h1         1 DG6       0.002200
@<TRIPOS>BOND
     1     1     2 1   
     2     1     3 1   
     3     1    16 1   
     4     1    17 1   
     5     2    18 1   
     6     3     4 1   
     7     3    19 1   
     8     3    20 1   
     9     4     5 1   
    10     4     6 1   
    11     4    21 1   
    12     5    22 1   
    13     6     7 1   
    14     6     8 1   
    15     6    23 1   
    16     7    24 1   
    17     8     9 1   
    18     8    10 1   
    19     8    25 1   
    20     9    26 1   
    21    10    11 1   
    22    10    27 1   
    23    10    28 1   
    24    11    12 1   
    25    12    13 1   
    26    12    14 1   
    27    12    15 1   
@<TRIPOS>SUBSTRUCTURE
     1 DG6         1 TEMP              0 ****  ****    0 ROOT
