@<TRIPOS>MOLECULE
DG7
   65    68     1     0     0
SMALL
abcg2


@<TRIPOS>ATOM
      1 CAA          3.9420     5.8950     0.0180 c3         1 DG7      -0.050800
      2 CAB          8.2430    -1.7480     0.4920 c3         1 DG7      -0.080433
      3 CAC          7.0040    -3.3990    -0.9190 c3         1 DG7      -0.080433
      4 CAD          6.7260    -3.4150     1.5640 c3         1 DG7      -0.080433
      5 OAE          1.5590    -2.5300    -0.2870 o          1 DG7      -0.589100
      6 CAF        -10.5020     0.8030     0.4240 ca         1 DG7      -0.169000
      7 CAG        -10.6990     2.1040    -0.0200 ca         1 DG7       0.339900
      8 CAH         -9.2200     0.4110     0.7680 ca         1 DG7      -0.050000
      9 CAI          4.8240     3.7770     1.0510 ca         1 DG7      -0.103500
     10 CAJ          3.6090     3.6140    -1.0000 ca         1 DG7      -0.103500
     11 CAK          5.0020     2.4050     1.0670 ca         1 DG7      -0.107000
     12 CAL          3.7970     2.2370    -1.0100 ca         1 DG7      -0.107000
     13 CAM         -8.4910     2.6000     0.2000 ca         1 DG7       0.350900
     14 CAN         -2.7840    -3.0990    -0.6290 cc         1 DG7      -0.306000
     15 CAO          4.4020    -1.9440     0.0850 cc         1 DG7      -0.228000
     16 CAP         -5.0000    -0.4090     0.2760 c3         1 DG7       0.161600
     17 CAR         -6.7710     0.9440     1.0000 c3         1 DG7       0.214900
     18 NAS         -9.7170     2.9900    -0.1310 nb         1 DG7      -0.668000
     19 NAT         -2.1510    -0.8910    -0.5980 nd         1 DG7      -0.718000
     20 NAU          5.9110    -0.2760     0.1970 nd         1 DG7      -0.504800
     21 NAW          0.1490    -0.7620    -0.3300 ns         1 DG7      -0.486400
     22 OAX         -6.3060     0.0480     0.0180 os         1 DG7      -0.458000
     23 SAY         -1.0710    -3.2120    -0.4490 ss         1 DG7       0.066600
     24 CAZ          1.3930    -1.3270    -0.2420 c          1 DG7       0.673100
     25 CBA          4.1200     4.4050     0.0230 ca         1 DG7      -0.068300
     26 CBB         -8.1790     1.3270     0.6610 ca         1 DG7      -0.139300
     27 CBC         -3.1720    -1.8030    -0.6960 cd         1 DG7       0.316300
     28 CBD          4.4850     1.6320     0.0330 ca         1 DG7       0.003800
     29 CBE          3.7350    -0.7460    -0.0080 cd         1 DG7       0.021600
     30 CBF          5.7630    -1.5810     0.2110 cc         1 DG7       0.280300
     31 CBG         -1.0100    -1.4830    -0.4630 cc         1 DG7       0.550300
     32 NBH          4.6730     0.2330     0.0510 na         1 DG7       0.177000
     33 HAA          4.8760     6.3980    -0.2400 hc         1 DG7       0.047033
     34 HAAA         3.1900     6.2060    -0.7060 hc         1 DG7       0.047033
     35 HAAB         3.6400     6.2620     0.9990 hc         1 DG7       0.047033
     36 HAB          8.4330    -1.0930    -0.3590 hc         1 DG7       0.037144
     37 HABA         8.2430    -1.1330     1.3930 hc         1 DG7       0.037144
     38 HABB         9.0770    -2.4490     0.5670 hc         1 DG7       0.037144
     39 HAC          7.1260    -2.7970    -1.8210 hc         1 DG7       0.037144
     40 HACA         7.8530    -4.0820    -0.8520 hc         1 DG7       0.037144
     41 HACB         6.1020    -4.0020    -1.0380 hc         1 DG7       0.037144
     42 HAD          7.5540    -4.1200     1.6640 hc         1 DG7       0.037144
     43 HADA         6.6740    -2.8240     2.4800 hc         1 DG7       0.037144
     44 HADB         5.8060    -3.9980     1.4870 hc         1 DG7       0.037144
     45 HAG        -11.6920     2.4430    -0.2940 h4         1 DG7       0.018100
     46 HAH         -9.0310    -0.5950     1.1240 ha         1 DG7       0.122000
     47 HAI          5.2330     4.3680     1.8610 ha         1 DG7       0.119500
     48 HAJ          3.0680     4.0750    -1.8170 ha         1 DG7       0.119500
     49 HAK          5.5360     1.9310     1.8790 ha         1 DG7       0.132000
     50 HAL          3.4190     1.6490    -1.8370 ha         1 DG7       0.132000
     51 HAM         -7.7060     3.3430     0.0990 h4         1 DG7       0.018100
     52 HAN         -3.4000    -3.9820    -0.6850 h4         1 DG7       0.161000
     53 HAO          3.9860    -2.9340     0.0760 ha         1 DG7       0.170000
     54 HAP         -4.9620    -0.9610     1.2260 h1         1 DG7       0.031200
     55 HAPA        -4.3020     0.4340     0.3650 h1         1 DG7       0.031200
     56 HAR         -6.7410     0.4770     1.9940 h1         1 DG7       0.030200
     57 HARA        -6.1360     1.8390     1.0490 h1         1 DG7       0.030200
     58 HNAW         0.0290     0.2410    -0.3270 hn         1 DG7       0.338500
     59 CBI          6.9340    -2.5200     0.3360 c3         1 DG7      -0.073300
     60 NAV          2.3970    -0.4150    -0.1070 ns         1 DG7      -0.403100
     61 CAQ         -4.5720    -1.3120    -0.8700 c3         1 DG7      -0.103700
     62 HAF        -11.3370     0.1210     0.4990 ha         1 DG7       0.124000
     63 HAQ         -5.2500    -2.1640    -0.9450 hc         1 DG7       0.066200
     64 HAQA        -4.6430    -0.7540    -1.8090 hc         1 DG7       0.066200
     65 HNAV         2.1580     0.5630    -0.0140 hn         1 DG7       0.333500
@<TRIPOS>BOND
     1     1    25 1   
     2     1    33 1   
     3     1    34 1   
     4     1    35 1   
     5     2    36 1   
     6     2    37 1   
     7     2    38 1   
     8     2    59 1   
     9     3    39 1   
    10     3    40 1   
    11     3    41 1   
    12     3    59 1   
    13     4    42 1   
    14     4    43 1   
    15     4    44 1   
    16     4    59 1   
    17     5    24 2   
    18     6     7 ar  
    19     6     8 ar  
    20     6    62 1   
    21     7    18 ar  
    22     7    45 1   
    23     8    26 ar  
    24     8    46 1   
    25     9    11 ar  
    26     9    25 ar  
    27     9    47 1   
    28    10    12 ar  
    29    10    25 ar  
    30    10    48 1   
    31    11    28 ar  
    32    11    49 1   
    33    12    28 ar  
    34    12    50 1   
    35    13    18 ar  
    36    13    26 ar  
    37    13    51 1   
    38    14    23 1   
    39    14    27 2   
    40    14    52 1   
    41    15    29 2   
    42    15    30 1   
    43    15    53 1   
    44    16    22 1   
    45    16    54 1   
    46    16    55 1   
    47    16    61 1   
    48    17    22 1   
    49    17    26 1   
    50    17    56 1   
    51    17    57 1   
    52    19    27 1   
    53    19    31 2   
    54    20    30 2   
    55    20    32 1   
    56    21    24 1   
    57    21    31 1   
    58    21    58 1   
    59    23    31 1   
    60    24    60 1   
    61    27    61 1   
    62    28    32 1   
    63    29    32 1   
    64    29    60 1   
    65    30    59 1   
    66    60    65 1   
    67    61    63 1   
    68    61    64 1   
@<TRIPOS>SUBSTRUCTURE
     1 DG7         1 TEMP              0 ****  ****    0 ROOT
