@<TRIPOS>MOLECULE
DG7
   65    68     1     0     0
SMALL
No Charge or Current Charge


@<TRIPOS>ATOM
      1 CAA          3.2410     5.7490    -0.1900 c3         1 DG7      -0.050800
      2 CAB          8.5130    -1.9070     0.5360 c3         1 DG7      -0.080433
      3 CAC          7.1300    -3.4830    -0.8620 c3         1 DG7      -0.080433
      4 CAD          6.8340    -3.4180     1.6520 c3         1 DG7      -0.080433
      5 OAE          1.7810    -2.6770    -0.2380 o          1 DG7      -0.589100
      6 CAF        -10.6110     1.0830     0.5040 ca         1 DG7      -0.169000
      7 CAG        -10.6300     2.4080     0.0350 ca         1 DG7       0.339900
      8 CAH         -9.3930     0.5170     0.9140 ca         1 DG7      -0.050000
      9 CAI          3.9610     3.6930     1.1180 ca         1 DG7      -0.103500
     10 CAJ          3.8460     3.5490    -1.3060 ca         1 DG7      -0.103500
     11 CAK          4.3780     2.3520     1.1790 ca         1 DG7      -0.107000
     12 CAL          4.2640     2.2080    -1.2470 ca         1 DG7      -0.107000
     13 CAM         -8.3430     2.6250     0.3510 ca         1 DG7       0.350900
     14 CAN         -2.8470    -2.9370    -0.7500 cc         1 DG7      -0.306000
     15 CAO          4.6450    -1.8640     0.0770 cc         1 DG7      -0.228000
     16 CAP         -4.9490    -0.3710     0.3690 c3         1 DG7       0.161600
     17 CAR         -6.8830     0.7640     1.2640 c3         1 DG7       0.214900
     18 NAS         -9.5170     3.1750    -0.0440 nb         1 DG7      -0.668000
     19 NAT         -1.9340    -0.7970    -0.6840 nd         1 DG7      -0.718000
     20 NAU          6.2160    -0.2040     0.2280 nd         1 DG7      -0.504800
     21 NAW          0.3370    -0.9250    -0.4300 ns         1 DG7      -0.486400
     22 OAX         -6.2440     0.1930     0.1120 os         1 DG7      -0.458000
     23 SAY         -1.1560    -3.2910    -0.5550 ss         1 DG7       0.066600
     24 CAZ          1.5770    -1.4770    -0.2820 c          1 DG7       0.673100
     25 CBA          3.6900     4.2970    -0.1240 ca         1 DG7      -0.068300
     26 CBB         -8.2330     1.3090     0.8370 ca         1 DG7      -0.139300
     27 CBC         -3.0700    -1.5830    -0.7960 cd         1 DG7       0.316300
     28 CBD          4.5290     1.6030    -0.0030 ca         1 DG7       0.003800
     29 CBE          3.9380    -0.7060    -0.0320 cd         1 DG7       0.021600
     30 CBF          6.0090    -1.5130     0.2310 cc         1 DG7       0.280300
     31 CBG         -0.8660    -1.5620    -0.5530 cc         1 DG7       0.550300
     32 NBH          4.9310     0.2700     0.0590 na         1 DG7       0.177000
     33 HAA          4.1040     6.4210    -0.2690 hc         1 DG7       0.047033
     34 HAAA         2.5950     5.9300    -1.0570 hc         1 DG7       0.047033
     35 HAAB         2.6760     6.0340     0.7060 hc         1 DG7       0.047033
     36 HAB          8.7600    -1.3010    -0.3440 hc         1 DG7       0.037144
     37 HABA         8.5530    -1.2570     1.4190 hc         1 DG7       0.037144
     38 HABB         9.2930    -2.6700     0.6470 hc         1 DG7       0.037144
     39 HAC          7.3010    -2.8960    -1.7730 hc         1 DG7       0.037144
     40 HACA         7.9290    -4.2310    -0.7860 hc         1 DG7       0.037144
     41 HACB         6.1810    -4.0190    -0.9800 hc         1 DG7       0.037144
     42 HAD          7.6230    -4.1650     1.8020 hc         1 DG7       0.037144
     43 HADA         6.7920    -2.7850     2.5480 hc         1 DG7       0.037144
     44 HADB         5.8790    -3.9530     1.5730 hc         1 DG7       0.037144
     45 HAG        -11.5620     2.8690    -0.2880 h4         1 DG7       0.018100
     46 HAH         -9.3510    -0.5070     1.2790 ha         1 DG7       0.122000
     47 HAI          3.8480     4.2630     2.0380 ha         1 DG7       0.119500
     48 HAJ          3.6450     4.0060    -2.2730 ha         1 DG7       0.119500
     49 HAK          4.5840     1.8930     2.1440 ha         1 DG7       0.132000
     50 HAL          4.3820     1.6370    -2.1660 ha         1 DG7       0.132000
     51 HAM         -7.4640     3.2650     0.2760 h4         1 DG7       0.018100
     52 HAN         -3.5640    -3.7440    -0.8180 h4         1 DG7       0.161000
     53 HAO          4.2650    -2.8780     0.0570 ha         1 DG7       0.170000
     54 HAP         -5.0170    -1.1810     1.1080 h1         1 DG7       0.031200
     55 HAPA        -4.2590     0.3930     0.7530 h1         1 DG7       0.031200
     56 HAR         -7.0220     0.0060     2.0460 h1         1 DG7       0.030200
     57 HARA        -6.2730     1.5760     1.6820 h1         1 DG7       0.030200
     58 HNAW         0.2940     0.0800    -0.4530 hn         1 DG7       0.338500
     59 CBI          7.1090    -2.5620     0.3870 c3         1 DG7      -0.073300
     60 NAV          2.5680    -0.5240    -0.1890 ns         1 DG7      -0.403100
     61 CAQ         -4.4130    -0.9300    -0.9580 c3         1 DG7      -0.103700
     62 HAF        -11.5320     0.5090     0.5460 ha         1 DG7       0.124000
     63 HAQ         -5.1310    -1.6550    -1.3570 hc         1 DG7       0.066200
     64 HAQA        -4.3450    -0.1170    -1.6900 hc         1 DG7       0.066200
     65 HNAV         2.2320     0.4280    -0.2440 hn         1 DG7       0.333500
@<TRIPOS>BOND
     1     1    25 1   
     2     1    33 1   
     3     1    34 1   
     4     1    35 1   
     5     2    36 1   
     6     2    37 1   
     7     2    38 1   
     8     2    59 1   
     9     3    39 1   
    10     3    40 1   
    11     3    41 1   
    12     3    59 1   
    13     4    42 1   
    14     4    43 1   
    15     4    44 1   
    16     4    59 1   
    17     5    24 2   
    18     6     7 ar  
    19     6     8 ar  
    20     6    62 1   
    21     7    18 ar  
    22     7    45 1   
    23     8    26 ar  
    24     8    46 1   
    25     9    11 ar  
    26     9    25 ar  
    27     9    47 1   
    28    10    12 ar  
    29    10    25 ar  
    30    10    48 1   
    31    11    28 ar  
    32    11    49 1   
    33    12    28 ar  
    34    12    50 1   
    35    13    18 ar  
    36    13    26 ar  
    37    13    51 1   
    38    14    23 1   
    39    14    27 2   
    40    14    52 1   
    41    15    29 2   
    42    15    30 1   
    43    15    53 1   
    44    16    22 1   
    45    16    54 1   
    46    16    55 1   
    47    16    61 1   
    48    17    22 1   
    49    17    26 1   
    50    17    56 1   
    51    17    57 1   
    52    19    27 1   
    53    19    31 2   
    54    20    30 2   
    55    20    32 1   
    56    21    24 1   
    57    21    31 1   
    58    21    58 1   
    59    23    31 1   
    60    24    60 1   
    61    27    61 1   
    62    28    32 1   
    63    29    32 1   
    64    29    60 1   
    65    30    59 1   
    66    60    65 1   
    67    61    63 1   
    68    61    64 1   
@<TRIPOS>SUBSTRUCTURE
     1 DG7         1 TEMP              0 ****  ****    0 ROOT
