@<TRIPOS>MOLECULE
DG9
   96    98     1     0     0
SMALL
No Charge or Current Charge


@<TRIPOS>ATOM
      1 C           -2.0500     0.6920    -0.0090 c3         1 DG9       0.069300
      2 N           -4.5070    -1.7980     2.1390 n7         1 DG9      -0.875300
      3 S           -2.9860    -1.1740     1.8710 s6         1 DG9       1.196100
      4 C1          -3.3210     0.1510     0.6990 c3         1 DG9      -0.338400
      5 N1         -11.1290     2.4040    -1.8710 nb         1 DG9      -0.299000
      6 O1          -8.5780    -4.3060     0.7460 oh         1 DG9      -0.699000
      7 C2         -11.4730     1.1670    -1.4420 ca         1 DG9       0.189900
      8 N2          -3.0220     2.8310    -0.8380 n8         1 DG9      -1.003200
      9 O2          -8.7870    -3.0010    -1.6700 oh         1 DG9      -0.690000
     10 C3          -5.1350    -2.6320     1.0910 c3         1 DG9       0.188800
     11 N3         -10.6490     0.2400    -0.9010 nb         1 DG9      -0.217000
     12 C4          -9.3550     0.6000    -0.7830 ca         1 DG9       0.149500
     13 C5          -8.9010     1.8290    -1.1880 ca         1 DG9      -0.106600
     14 C6          -9.8350     2.7320    -1.7380 ca         1 DG9       0.453900
     15 N6          -9.4840     3.9720    -2.1710 nv         1 DG9      -1.059900
     16 N7          -7.5340     1.9860    -0.9840 nc         1 DG9      -0.544100
     17 C8          -7.1990     0.8020    -0.4400 cd         1 DG9       0.394700
     18 N9          -8.2760    -0.0880    -0.2920 na         1 DG9      -0.291300
     19 CA          -2.3510     1.5830    -1.2650 c3         1 DG9       0.182500
     20 CB          -3.1510     0.8790    -2.4140 c3         1 DG9      -0.056700
     21 C10         -8.2330    -1.4430     0.2440 c5         1 DG9       0.316300
     22 S1P         -1.0430     1.6570     1.2160 ss         1 DG9      -0.426000
     23 C11         -7.7680    -2.5520    -0.7550 c5         1 DG9       0.081300
     24 P2A         14.2200    -1.0430    -2.0600 p4         1 DG9       1.349900
     25 C2P          0.6490     1.4570     0.4900 c3         1 DG9       0.036600
     26 O2P         -2.5450    -0.6370     3.1590 o          1 DG9      -0.511500
     27 C12         -7.3910    -3.6650     0.2590 c5         1 DG9       0.113300
     28 C3P          1.7070     2.1370     1.3820 c3         1 DG9       0.113000
     29 O3P         -2.2210    -2.2310     1.2060 o          1 DG9      -0.511500
     30 C13         -6.6540    -2.8170     1.3510 c5         1 DG9       0.159300
     31 O4          -7.2850    -1.5020     1.3340 os         1 DG9      -0.454000
     32 O4A         14.7850     0.3620    -2.1360 o          1 DG9      -0.647500
     33 N4P          3.0610     2.0430     0.8220 ns         1 DG9      -0.508900
     34 C5P          3.8200     0.8960     0.7950 c          1 DG9       0.601100
     35 O5P          3.4180    -0.1660     1.2460 o          1 DG9      -0.582100
     36 O6A         12.7420    -1.1200    -1.3200 os         1 DG9      -0.599400
     37 C6P          5.1880     1.0380     0.1310 c3         1 DG9      -0.181400
     38 C7P          6.3050     0.9980     1.1860 c3         1 DG9       0.114000
     39 N8P          7.6240     1.1220     0.5650 ns         1 DG9      -0.506900
     40 C9P          8.8190     0.8970     1.2190 c          1 DG9       0.576100
     41 O9P          8.8430     0.6230     2.4130 o          1 DG9      -0.594100
     42 CAP         10.1220     1.0940     0.3640 c3         1 DG9       0.085300
     43 OAP          9.9340     2.0400    -0.7270 oh         1 DG9      -0.664000
     44 CBP         10.7610    -0.2450    -0.1720 c3         1 DG9      -0.065000
     45 CCP         12.1380     0.0910    -0.8370 c3         1 DG9       0.226600
     46 CDP         11.0030    -1.2310     1.0130 c3         1 DG9      -0.089100
     47 CEP          9.8200    -0.9400    -1.2030 c3         1 DG9      -0.089100
     48 CG1         -3.3130     1.7900    -3.6580 c3         1 DG9      -0.087600
     49 CG2         -2.5260    -0.4750    -2.8370 c3         1 DG9      -0.087600
     50 H           -1.4400    -0.1610    -0.3390 h1         1 DG9       0.091700
     51 HN          -5.0560    -0.9430     2.2240 hn         1 DG9       0.501000
     52 H1          -3.8410     0.9460     1.2450 h1         1 DG9       0.092700
     53 H1A         -3.9930    -0.2830    -0.0440 h1         1 DG9       0.092700
     54 HO1         -9.1820    -4.3140    -0.0390 ho         1 DG9       0.527000
     55 HN2         -3.9700     2.5980    -0.5320 hn         1 DG9       0.409500
     56 HN2A        -2.5630     3.1240     0.0320 hn         1 DG9       0.409500
     57 HO2         -8.9070    -2.2970    -2.3530 ho         1 DG9       0.518000
     58 H3          -5.0130    -2.1820     0.0970 h1         1 DG9       0.052200
     59 H3A         -4.6590    -3.6210     1.0580 h1         1 DG9       0.052200
     60 HN6        -10.1120     4.4480    -2.8130 hn         1 DG9       0.507000
     61 HN6A        -8.4910     4.1580    -2.2820 hn         1 DG9       0.507000
     62 H8          -6.2000     0.5190    -0.1330 h5         1 DG9       0.050800
     63 HA          -1.3760     1.8730    -1.6820 h1         1 DG9       0.059700
     64 HB          -4.1640     0.6670    -2.0500 hc         1 DG9       0.036700
     65 H5          -9.2380    -1.6730     0.6210 h2         1 DG9       0.130700
     66 H2          -6.8790    -2.2190    -1.3100 h1         1 DG9       0.048700
     67 H2P          0.8760     0.3870     0.3970 h1         1 DG9       0.070700
     68 H2PA         0.6710     1.9060    -0.5110 h1         1 DG9       0.070700
     69 H9          -6.7190    -4.4070    -0.1960 h1         1 DG9       0.060700
     70 H3P          1.4490     3.1980     1.5010 h1         1 DG9       0.072200
     71 H3PA         1.6970     1.6740     2.3780 h1         1 DG9       0.072200
     72 H4          -6.7770    -3.2690     2.3450 h1         1 DG9       0.117700
     73 HN4P         3.4760     2.8750     0.4180 hn         1 DG9       0.311500
     74 H6P          5.3330     0.1990    -0.5600 hc         1 DG9       0.059200
     75 H6PA         5.2500     1.9880    -0.4120 hc         1 DG9       0.059200
     76 H7P          6.1710     1.8190     1.9040 h1         1 DG9       0.070200
     77 H7PA         6.2580     0.0490     1.7380 h1         1 DG9       0.070200
     78 HN8P         7.6830     1.4230    -0.4000 hn         1 DG9       0.319500
     79 HAP         10.8350     1.5270     1.0790 h1         1 DG9       0.100700
     80 HOAP         9.6520     1.5390    -1.5230 ho         1 DG9       0.447000
     81 HCP         12.7880     0.5780    -0.0960 h1         1 DG9       0.051200
     82 HCPA        11.9900     0.7960    -1.6670 h1         1 DG9       0.051200
     83 HDP         10.0590    -1.5530     1.4680 hc         1 DG9       0.049033
     84 HDPA        11.5180    -2.1400     0.6790 hc         1 DG9       0.049033
     85 HDPB        11.6180    -0.7660     1.7930 hc         1 DG9       0.049033
     86 HEP          9.6820    -0.3290    -2.1040 hc         1 DG9       0.049033
     87 HEPA        10.2330    -1.9040    -1.5240 hc         1 DG9       0.049033
     88 HEPB         8.8320    -1.1390    -0.7710 hc         1 DG9       0.049033
     89 HG1         -2.3340     2.0720    -4.0650 hc         1 DG9       0.036867
     90 HG1A        -3.8740     1.2750    -4.4470 hc         1 DG9       0.036867
     91 HG1B        -3.8600     2.7080    -3.4140 hc         1 DG9       0.036867
     92 HG2         -2.5640    -1.2060    -2.0210 hc         1 DG9       0.036867
     93 HG2A        -3.0740    -0.9080    -3.6830 hc         1 DG9       0.036867
     94 HG2B        -1.4800    -0.3450    -3.1400 hc         1 DG9       0.036867
     95 H10        -12.5210     0.8890    -1.5440 h5         1 DG9       0.050100
     96 O3          14.7390    -2.3860    -2.5190 o          1 DG9      -0.467000
@<TRIPOS>BOND
     1     1     4 1   
     2     1    19 1   
     3     1    22 1   
     4     1    50 1   
     5     2     3 1   
     6     2    10 1   
     7     2    51 1   
     8     3     4 1   
     9     3    26 2   
    10     3    29 2   
    11     4    52 1   
    12     4    53 1   
    13     5     7 ar  
    14     5    14 ar  
    15     6    27 1   
    16     6    54 1   
    17     7    11 ar  
    18     7    95 1   
    19     8    19 1   
    20     8    55 1   
    21     8    56 1   
    22     9    23 1   
    23     9    57 1   
    24    10    30 1   
    25    10    58 1   
    26    10    59 1   
    27    11    12 ar  
    28    12    13 ar  
    29    12    18 1   
    30    13    14 ar  
    31    13    16 1   
    32    14    15 1   
    33    15    60 1   
    34    15    61 1   
    35    16    17 2   
    36    17    18 1   
    37    17    62 1   
    38    18    21 1   
    39    19    20 1   
    40    19    63 1   
    41    20    48 1   
    42    20    49 1   
    43    20    64 1   
    44    21    23 1   
    45    21    31 1   
    46    21    65 1   
    47    22    25 1   
    48    23    27 1   
    49    23    66 1   
    50    24    32 1   
    51    24    36 1   
    52    24    96 2   
    53    25    28 1   
    54    25    67 1   
    55    25    68 1   
    56    27    30 1   
    57    27    69 1   
    58    28    33 1   
    59    28    70 1   
    60    28    71 1   
    61    30    31 1   
    62    30    72 1   
    63    33    34 1   
    64    33    73 1   
    65    34    35 2   
    66    34    37 1   
    67    36    45 1   
    68    37    38 1   
    69    37    74 1   
    70    37    75 1   
    71    38    39 1   
    72    38    76 1   
    73    38    77 1   
    74    39    40 1   
    75    39    78 1   
    76    40    41 2   
    77    40    42 1   
    78    42    43 1   
    79    42    44 1   
    80    42    79 1   
    81    43    80 1   
    82    44    45 1   
    83    44    46 1   
    84    44    47 1   
    85    45    81 1   
    86    45    82 1   
    87    46    83 1   
    88    46    84 1   
    89    46    85 1   
    90    47    86 1   
    91    47    87 1   
    92    47    88 1   
    93    48    89 1   
    94    48    90 1   
    95    48    91 1   
    96    49    92 1   
    97    49    93 1   
    98    49    94 1   
@<TRIPOS>SUBSTRUCTURE
     1 DG9         1 TEMP              0 ****  ****    0 ROOT
