@<TRIPOS>MOLECULE
DG9
   96    98     1     0     0
SMALL
abcg2


@<TRIPOS>ATOM
      1 C           -1.9550     1.1430    -0.2390 c3         1 DG9       0.069300
      2 N           -4.4960    -1.4500     1.6020 n7         1 DG9      -0.875300
      3 S           -3.0690    -0.6260     1.6080 s6         1 DG9       1.196100
      4 C1          -3.2650     0.6570     0.3580 c3         1 DG9      -0.338400
      5 N1         -11.8480     1.5360    -0.3410 nb         1 DG9      -0.299000
      6 O1          -7.4790    -4.7840    -0.0910 oh         1 DG9      -0.699000
      7 C2         -11.8780     0.2330    -0.0750 ca         1 DG9       0.189900
      8 N2          -2.8220     3.3790    -0.9950 n8         1 DG9      -1.003200
      9 O2          -8.4740    -3.1190    -2.0720 oh         1 DG9      -0.690000
     10 C3          -4.8400    -2.2710     0.4520 c3         1 DG9       0.188800
     11 N3         -10.8660    -0.6150    -0.0060 nb         1 DG9      -0.217000
     12 C4          -9.7040    -0.0130    -0.2390 ca         1 DG9       0.149500
     13 C5          -9.5130     1.3300    -0.5210 ca         1 DG9      -0.106600
     14 C6         -10.6710     2.1280    -0.5730 ca         1 DG9       0.453900
     15 N6         -10.6370     3.4360    -0.8310 nv         1 DG9      -1.059900
     16 N7          -8.1820     1.6070    -0.7040 nc         1 DG9      -0.544100
     17 C8          -7.5920     0.4630    -0.5410 cd         1 DG9       0.394700
     18 N9          -8.4540    -0.5640    -0.2590 na         1 DG9      -0.291300
     19 CA          -2.1930     2.1390    -1.4010 c3         1 DG9       0.182500
     20 CB          -2.9650     1.5160    -2.5770 c3         1 DG9      -0.056700
     21 C10         -8.1220    -1.9430    -0.0190 c5         1 DG9       0.316300
     22 S1P         -0.9260     1.8910     1.0710 ss         1 DG9      -0.426000
     23 C11         -7.4800    -2.6460    -1.2170 c5         1 DG9       0.081300
     24 P2A         13.8090    -2.2550    -1.5350 p4         1 DG9       1.349900
     25 C2P          0.7190     1.6510     0.3360 c3         1 DG9       0.036600
     26 O2P         -2.9580    -0.0140     2.9190 o          1 DG9      -0.511500
     27 C12         -6.6570    -3.7320    -0.5180 c5         1 DG9       0.113300
     28 C3P          1.6950     2.6580     0.9360 c3         1 DG9       0.113000
     29 O3P         -2.0500    -1.5520     1.1380 o          1 DG9      -0.511500
     30 C13         -6.1620    -2.9780     0.7090 c5         1 DG9       0.159300
     31 O4          -7.1830    -2.0250     1.0200 os         1 DG9      -0.454000
     32 O4A         14.2750    -1.2510    -2.4930 o          1 DG9      -0.647500
     33 N4P          3.0280     2.4830     0.4110 ns         1 DG9      -0.508900
     34 C5P          3.9210     1.6260     0.9360 c          1 DG9       0.601100
     35 O5P          3.7070     0.9830     1.9530 o          1 DG9      -0.582100
     36 O6A         12.5010    -1.9170    -0.7520 os         1 DG9      -0.599400
     37 C6P          5.2170     1.4960     0.1650 c3         1 DG9      -0.181400
     38 C7P          6.4160     1.4140     1.0960 c3         1 DG9       0.114000
     39 N8P          7.6160     1.1730     0.3230 ns         1 DG9      -0.506900
     40 C9P          8.8090     0.9950     0.8990 c          1 DG9       0.576100
     41 O9P          8.9670     1.0240     2.1120 o          1 DG9      -0.594100
     42 CAP          9.9840     0.7650    -0.0620 c3         1 DG9       0.085300
     43 OAP          9.6070     0.9730    -1.4050 oh         1 DG9      -0.664000
     44 CBP         10.6810    -0.6090     0.1490 c3         1 DG9      -0.065000
     45 CCP         11.7620    -0.6840    -0.9360 c3         1 DG9       0.226600
     46 CDP         11.3570    -0.6810     1.5210 c3         1 DG9      -0.089100
     47 CEP          9.6800    -1.7580    -0.0020 c3         1 DG9      -0.089100
     48 CG1         -3.0170     2.4860    -3.7540 c3         1 DG9      -0.087600
     49 CG2         -2.3710     0.1840    -3.0290 c3         1 DG9      -0.087600
     50 H           -1.3990     0.2780    -0.6040 h1         1 DG9       0.091700
     51 HN          -5.2600    -0.9120     1.9980 hn         1 DG9       0.501000
     52 H1          -3.8540     1.4540     0.8150 h1         1 DG9       0.092700
     53 H1A         -3.8680     0.2080    -0.4350 h1         1 DG9       0.092700
     54 HO1         -8.0810    -5.0030    -0.8130 ho         1 DG9       0.527000
     55 HN2         -3.7860     3.2280    -0.7220 hn         1 DG9       0.409500
     56 HN2A        -2.3420     3.7620    -0.1900 hn         1 DG9       0.409500
     57 HO2         -8.0930    -3.2720    -2.9430 ho         1 DG9       0.518000
     58 H3          -4.8930    -1.6900    -0.4810 h1         1 DG9       0.052200
     59 H3A         -4.0710    -3.0290     0.3110 h1         1 DG9       0.052200
     60 HN6        -11.4940     3.9500    -0.9380 hn         1 DG9       0.507000
     61 HN6A        -9.7760     3.8930    -1.0760 hn         1 DG9       0.507000
     62 H8          -6.5260     0.3070    -0.6110 h5         1 DG9       0.050800
     63 HA          -1.1960     2.3910    -1.7820 h1         1 DG9       0.059700
     64 HB          -4.0000     1.3370    -2.2560 hc         1 DG9       0.036700
     65 H5          -9.0600    -2.4390     0.2510 h2         1 DG9       0.130700
     66 H2          -6.8000    -1.9570    -1.7340 h1         1 DG9       0.048700
     67 H2P          1.0530     0.6300     0.5210 h1         1 DG9       0.070700
     68 H2PA         0.6560     1.8030    -0.7430 h1         1 DG9       0.070700
     69 H9          -5.8270    -4.0870    -1.1420 h1         1 DG9       0.060700
     70 H3P          1.3680     3.6710     0.7030 h1         1 DG9       0.072200
     71 H3PA         1.7240     2.5660     2.0220 h1         1 DG9       0.072200
     72 H4          -6.0430    -3.6470     1.5640 h1         1 DG9       0.117700
     73 HN4P         3.2550     2.9540    -0.4490 hn         1 DG9       0.311500
     74 H6P          5.1510     0.5800    -0.4310 hc         1 DG9       0.059200
     75 H6PA         5.3400     2.3220    -0.5390 hc         1 DG9       0.059200
     76 H7P          6.5090     2.3420     1.6670 h1         1 DG9       0.070200
     77 H7PA         6.2760     0.6060     1.8140 h1         1 DG9       0.070200
     78 HN8P         7.5720     1.2670    -0.6780 hn         1 DG9       0.319500
     79 HAP         10.7160     1.5490     0.1630 h1         1 DG9       0.100700
     80 HOAP         9.1860     0.1790    -1.7560 ho         1 DG9       0.447000
     81 HCP         12.4450     0.1630    -0.8460 h1         1 DG9       0.051200
     82 HCPA        11.3450    -0.6950    -1.9410 h1         1 DG9       0.051200
     83 HDP         10.6320    -0.6450     2.3280 hc         1 DG9       0.049033
     84 HDPA        11.9090    -1.6140     1.6220 hc         1 DG9       0.049033
     85 HDPB        12.0620     0.1410     1.6630 hc         1 DG9       0.049033
     86 HEP          9.1730    -1.7600    -0.9700 hc         1 DG9       0.049033
     87 HEPA        10.1770    -2.7230     0.0910 hc         1 DG9       0.049033
     88 HEPB         8.9160    -1.7150     0.7750 hc         1 DG9       0.049033
     89 HG1         -2.0100     2.7160    -4.1110 hc         1 DG9       0.036867
     90 HG1A        -3.5710     2.0500    -4.5860 hc         1 DG9       0.036867
     91 HG1B        -3.4980     3.4240    -3.4830 hc         1 DG9       0.036867
     92 HG2         -2.4330    -0.6000    -2.2730 hc         1 DG9       0.036867
     93 HG2A        -2.8990    -0.1820    -3.9100 hc         1 DG9       0.036867
     94 HG2B        -1.3180     0.2960    -3.3000 hc         1 DG9       0.036867
     95 H10        -12.8630    -0.1830     0.1060 h5         1 DG9       0.050100
     96 O3          14.3560    -3.5600    -1.1640 o          1 DG9      -0.467000
@<TRIPOS>BOND
     1     1     4 1   
     2     1    19 1   
     3     1    22 1   
     4     1    50 1   
     5     2     3 1   
     6     2    10 1   
     7     2    51 1   
     8     3     4 1   
     9     3    26 2   
    10     3    29 2   
    11     4    52 1   
    12     4    53 1   
    13     5     7 ar  
    14     5    14 ar  
    15     6    27 1   
    16     6    54 1   
    17     7    11 ar  
    18     7    95 1   
    19     8    19 1   
    20     8    55 1   
    21     8    56 1   
    22     9    23 1   
    23     9    57 1   
    24    10    30 1   
    25    10    58 1   
    26    10    59 1   
    27    11    12 ar  
    28    12    13 ar  
    29    12    18 1   
    30    13    14 ar  
    31    13    16 1   
    32    14    15 1   
    33    15    60 1   
    34    15    61 1   
    35    16    17 2   
    36    17    18 1   
    37    17    62 1   
    38    18    21 1   
    39    19    20 1   
    40    19    63 1   
    41    20    48 1   
    42    20    49 1   
    43    20    64 1   
    44    21    23 1   
    45    21    31 1   
    46    21    65 1   
    47    22    25 1   
    48    23    27 1   
    49    23    66 1   
    50    24    32 1   
    51    24    36 1   
    52    24    96 2   
    53    25    28 1   
    54    25    67 1   
    55    25    68 1   
    56    27    30 1   
    57    27    69 1   
    58    28    33 1   
    59    28    70 1   
    60    28    71 1   
    61    30    31 1   
    62    30    72 1   
    63    33    34 1   
    64    33    73 1   
    65    34    35 2   
    66    34    37 1   
    67    36    45 1   
    68    37    38 1   
    69    37    74 1   
    70    37    75 1   
    71    38    39 1   
    72    38    76 1   
    73    38    77 1   
    74    39    40 1   
    75    39    78 1   
    76    40    41 2   
    77    40    42 1   
    78    42    43 1   
    79    42    44 1   
    80    42    79 1   
    81    43    80 1   
    82    44    45 1   
    83    44    46 1   
    84    44    47 1   
    85    45    81 1   
    86    45    82 1   
    87    46    83 1   
    88    46    84 1   
    89    46    85 1   
    90    47    86 1   
    91    47    87 1   
    92    47    88 1   
    93    48    89 1   
    94    48    90 1   
    95    48    91 1   
    96    49    92 1   
    97    49    93 1   
    98    49    94 1   
@<TRIPOS>SUBSTRUCTURE
     1 DG9         1 TEMP              0 ****  ****    0 ROOT
