@<TRIPOS>MOLECULE
DGA
  120   119     1     0     0
SMALL
abcg2


@<TRIPOS>ATOM
      1 CA1         -9.1270    12.1850    -4.9240 c          1 DGA       0.599100
      2 CA2         -9.8770    13.1000    -5.8520 c3         1 DGA      -0.138400
      3 CA3        -10.9870    13.8830    -5.1670 c3         1 DGA      -0.069400
      4 CA4        -11.8190    14.6840    -6.1600 c3         1 DGA      -0.075400
      5 CA5        -12.8980    15.5230    -5.4870 c3         1 DGA      -0.075400
      6 CA6        -13.8150    16.2250    -6.4800 c3         1 DGA      -0.076400
      7 CA7        -14.8710    17.0940    -5.8060 c3         1 DGA      -0.073400
      8 CA8        -15.8400    17.7650    -6.7780 c3         1 DGA      -0.070400
      9 CA9        -16.6440    16.8030    -7.6540 c3         1 DGA      -0.073400
     10 CAA        -17.4650    15.7880    -6.8690 c3         1 DGA      -0.076400
     11 CBA        -18.2910    14.8650    -7.7570 c3         1 DGA      -0.074400
     12 CCA        -19.1030    13.8470    -6.9650 c3         1 DGA      -0.074400
     13 CDA        -19.8960    12.8850    -7.8400 c3         1 DGA      -0.073400
     14 CEA        -20.7210    11.8890    -7.0350 c3         1 DGA      -0.075400
     15 CFA        -21.4960    10.8990    -7.8950 c3         1 DGA      -0.073400
     16 CGA        -22.3540     9.9480    -7.0710 c3         1 DGA      -0.080400
     17 CHA        -23.1490     8.9500    -7.9030 c3         1 DGA      -0.073400
     18 CIA        -24.0110     8.0340    -7.0460 c3         1 DGA      -0.089100
     19 OA1         -9.5620    11.7470    -3.8900 o          1 DGA      -0.483000
     20 CB1         -9.3170     8.7280    -4.3450 c          1 DGA       0.607100
     21 CB2        -10.7940     8.5420    -4.5530 c3         1 DGA      -0.130400
     22 CB3        -11.5660     8.2650    -3.2730 c3         1 DGA      -0.067400
     23 CB4        -13.0580     8.1160    -3.5410 c3         1 DGA      -0.075400
     24 CB5        -13.8730     7.8400    -2.2840 c3         1 DGA      -0.074400
     25 CB6        -15.3670     7.7340    -2.5630 c3         1 DGA      -0.076400
     26 CB7        -16.1990     7.4590    -1.3150 c3         1 DGA      -0.072400
     27 CB8        -17.6970     7.3300    -1.5830 c3         1 DGA      -0.072400
     28 CB9        -18.3550     8.6180    -2.0690 c3         1 DGA      -0.076400
     29 CAB        -19.8550     8.4800    -2.2970 c3         1 DGA      -0.075400
     30 CBB        -20.5060     9.7740    -2.7710 c3         1 DGA      -0.075400
     31 CCB        -22.0020     9.6460    -3.0240 c3         1 DGA      -0.074400
     32 CDB        -22.6470    10.9560    -3.4590 c3         1 DGA      -0.076400
     33 CEB        -24.1290    10.8220    -3.7810 c3         1 DGA      -0.076400
     34 CFB        -24.7440    12.1050    -4.3260 c3         1 DGA      -0.075400
     35 CGB        -26.2140    11.9570    -4.6970 c3         1 DGA      -0.075400
     36 CHB        -26.8350    13.2420    -5.2330 c3         1 DGA      -0.075400
     37 CIB        -28.3010    13.0770    -5.6080 c3         1 DGA      -0.088100
     38 OB1         -8.7140     8.4620    -3.3360 o          1 DGA      -0.486000
     39 OG1         -7.9140    11.8960    -5.4000 os         1 DGA      -0.451100
     40 CG1         -7.1380    10.8910    -4.7480 c3         1 DGA       0.133600
     41 CG2         -7.3470     9.5430    -5.4190 c3         1 DGA       0.153300
     42 OG2         -8.7380     9.2140    -5.4420 os         1 DGA      -0.447100
     43 CG3         -6.8690     9.5370    -6.8570 c3         1 DGA       0.165600
     44 OXT         -6.9780     8.2280    -7.3580 oh         1 DGA      -0.652000
     45 HA21       -10.2990    12.4650    -6.6410 hc         1 DGA       0.071200
     46 HA22        -9.1790    13.7710    -6.3570 hc         1 DGA       0.071200
     47 HA31       -11.6400    13.2010    -4.6180 hc         1 DGA       0.054200
     48 HA32       -10.5490    14.5580    -4.4250 hc         1 DGA       0.054200
     49 HA41       -12.2870    13.9950    -6.8730 hc         1 DGA       0.037700
     50 HA42       -11.1670    15.3360    -6.7500 hc         1 DGA       0.037700
     51 HA51       -13.5030    14.8820    -4.8340 hc         1 DGA       0.039200
     52 HA52       -12.4250    16.2620    -4.8320 hc         1 DGA       0.039200
     53 HA61       -13.2170    16.8410    -7.1620 hc         1 DGA       0.038200
     54 HA62       -14.3010    15.4680    -7.1040 hc         1 DGA       0.038200
     55 HA71       -14.3720    17.8680    -5.2140 hc         1 DGA       0.037700
     56 HA72       -15.4300    16.4860    -5.0870 hc         1 DGA       0.037700
     57 HA81       -16.5360    18.3880    -6.2070 hc         1 DGA       0.037700
     58 HA82       -15.2830    18.4500    -7.4250 hc         1 DGA       0.037700
     59 HA91       -15.9740    16.2740    -8.3400 hc         1 DGA       0.036200
     60 HA92       -17.3140    17.3900    -8.2900 hc         1 DGA       0.036200
     61 HAT1       -16.8020    15.1750    -6.2490 hc         1 DGA       0.038700
     62 HAT2       -18.1270    16.3160    -6.1730 hc         1 DGA       0.038700
     63 HAE1       -18.9650    15.4630    -8.3810 hc         1 DGA       0.036200
     64 HAE2       -17.6230    14.3390    -8.4480 hc         1 DGA       0.036200
     65 HAW1       -19.7890    14.3770    -6.2940 hc         1 DGA       0.036700
     66 HAW2       -18.4300    13.2740    -6.3180 hc         1 DGA       0.036700
     67 HAH1       -20.5600    13.4540    -8.5010 hc         1 DGA       0.037200
     68 HAH2       -19.2070    12.3410    -8.4970 hc         1 DGA       0.037200
     69 HAF1       -20.0640    11.3390    -6.3520 hc         1 DGA       0.037200
     70 HAF2       -21.4230    12.4380    -6.3960 hc         1 DGA       0.037200
     71 HAN1       -22.1360    11.4470    -8.5960 hc         1 DGA       0.036700
     72 HAN2       -20.7950    10.3240    -8.5100 hc         1 DGA       0.036700
     73 HAS1       -21.7190     9.4050    -6.3600 hc         1 DGA       0.039700
     74 HAS2       -23.0470    10.5340    -6.4600 hc         1 DGA       0.039700
     75 HAV1       -22.4630     8.3500    -8.5090 hc         1 DGA       0.036700
     76 HAV2       -23.7840     9.4940    -8.6110 hc         1 DGA       0.036700
     77 HAG1       -24.6000     7.3460    -7.6530 hc         1 DGA       0.031367
     78 HAG2       -24.7060     8.6110    -6.4320 hc         1 DGA       0.031367
     79 HAG3       -23.3980     7.4370    -6.3680 hc         1 DGA       0.031367
     80 HB21       -10.9280     7.7190    -5.2630 hc         1 DGA       0.069200
     81 HB22       -11.1880     9.4300    -5.0540 hc         1 DGA       0.069200
     82 HB31       -11.1870     7.3560    -2.7980 hc         1 DGA       0.057200
     83 HB32       -11.4040     9.0790    -2.5610 hc         1 DGA       0.057200
     84 HB41       -13.2200     7.3090    -4.2630 hc         1 DGA       0.036200
     85 HB42       -13.4310     9.0290    -4.0180 hc         1 DGA       0.036200
     86 HB51       -13.5210     6.9130    -1.8170 hc         1 DGA       0.040200
     87 HB52       -13.6960     8.6360    -1.5530 hc         1 DGA       0.040200
     88 HB61       -15.7020     8.6620    -3.0370 hc         1 DGA       0.037200
     89 HB62       -15.5440     6.9380    -3.2960 hc         1 DGA       0.037200
     90 HB71       -16.0300     8.2560    -0.5820 hc         1 DGA       0.038200
     91 HB72       -15.8400     6.5370    -0.8470 hc         1 DGA       0.038200
     92 HB81       -17.8660     6.5360    -2.3180 hc         1 DGA       0.037200
     93 HB82       -18.1980     7.0040    -0.6650 hc         1 DGA       0.037200
     94 HB91       -17.8830     8.9490    -2.9990 hc         1 DGA       0.038200
     95 HB92       -18.1720     9.4120    -1.3350 hc         1 DGA       0.038200
     96 HBT1       -20.0380     7.6900    -3.0350 hc         1 DGA       0.036700
     97 HBT2       -20.3390     8.1490    -1.3720 hc         1 DGA       0.036700
     98 HBE1       -20.3280    10.5600    -2.0280 hc         1 DGA       0.037200
     99 HBE2       -20.0120    10.1090    -3.6910 hc         1 DGA       0.037200
    100 HBW1       -22.5000     9.2770    -2.1200 hc         1 DGA       0.037200
    101 HBW2       -22.1720     8.8880    -3.7980 hc         1 DGA       0.037200
    102 HBH1       -22.5090    11.7090    -2.6750 hc         1 DGA       0.038200
    103 HBH2       -22.1200    11.3380    -4.3400 hc         1 DGA       0.038200
    104 HBF1       -24.2670    10.0200    -4.5150 hc         1 DGA       0.037700
    105 HBF2       -24.6740    10.5070    -2.8840 hc         1 DGA       0.037700
    106 HBN1       -24.6310    12.9060    -3.5860 hc         1 DGA       0.037200
    107 HBN2       -24.1790    12.4270    -5.2090 hc         1 DGA       0.037200
    108 HBS1       -26.3200    11.1660    -5.4480 hc         1 DGA       0.036700
    109 HBS2       -26.7790    11.6210    -3.8200 hc         1 DGA       0.036700
    110 HBV1       -26.2670    13.5800    -6.1050 hc         1 DGA       0.036700
    111 HBV2       -26.7350    14.0320    -4.4810 hc         1 DGA       0.036700
    112 HBG1       -28.7310    14.0110    -5.9730 hc         1 DGA       0.031367
    113 HBG2       -28.8930    12.7550    -4.7490 hc         1 DGA       0.031367
    114 HBG3       -28.4260    12.3280    -6.3920 hc         1 DGA       0.031367
    115 HG11        -6.0940    11.1880    -4.8530 h1         1 DGA       0.078200
    116 HG12        -7.3670    10.8410    -3.6850 h1         1 DGA       0.078200
    117 HG2         -6.7820     8.7970    -4.8520 h1         1 DGA       0.084700
    118 HG31        -5.8300     9.8900    -6.8570 h1         1 DGA       0.033200
    119 HG32        -7.4520    10.2520    -7.4490 h1         1 DGA       0.033200
    120 HXT         -6.7450     8.2460    -8.2900 ho         1 DGA       0.446000
@<TRIPOS>BOND
     1     1     2 1   
     2     1    19 2   
     3     1    39 1   
     4     2     3 1   
     5     2    45 1   
     6     2    46 1   
     7     3     4 1   
     8     3    47 1   
     9     3    48 1   
    10     4     5 1   
    11     4    49 1   
    12     4    50 1   
    13     5     6 1   
    14     5    51 1   
    15     5    52 1   
    16     6     7 1   
    17     6    53 1   
    18     6    54 1   
    19     7     8 1   
    20     7    55 1   
    21     7    56 1   
    22     8     9 1   
    23     8    57 1   
    24     8    58 1   
    25     9    10 1   
    26     9    59 1   
    27     9    60 1   
    28    10    11 1   
    29    10    61 1   
    30    10    62 1   
    31    11    12 1   
    32    11    63 1   
    33    11    64 1   
    34    12    13 1   
    35    12    65 1   
    36    12    66 1   
    37    13    14 1   
    38    13    67 1   
    39    13    68 1   
    40    14    15 1   
    41    14    69 1   
    42    14    70 1   
    43    15    16 1   
    44    15    71 1   
    45    15    72 1   
    46    16    17 1   
    47    16    73 1   
    48    16    74 1   
    49    17    18 1   
    50    17    75 1   
    51    17    76 1   
    52    18    77 1   
    53    18    78 1   
    54    18    79 1   
    55    20    21 1   
    56    20    38 2   
    57    20    42 1   
    58    21    22 1   
    59    21    80 1   
    60    21    81 1   
    61    22    23 1   
    62    22    82 1   
    63    22    83 1   
    64    23    24 1   
    65    23    84 1   
    66    23    85 1   
    67    24    25 1   
    68    24    86 1   
    69    24    87 1   
    70    25    26 1   
    71    25    88 1   
    72    25    89 1   
    73    26    27 1   
    74    26    90 1   
    75    26    91 1   
    76    27    28 1   
    77    27    92 1   
    78    27    93 1   
    79    28    29 1   
    80    28    94 1   
    81    28    95 1   
    82    29    30 1   
    83    29    96 1   
    84    29    97 1   
    85    30    31 1   
    86    30    98 1   
    87    30    99 1   
    88    31    32 1   
    89    31   100 1   
    90    31   101 1   
    91    32    33 1   
    92    32   102 1   
    93    32   103 1   
    94    33    34 1   
    95    33   104 1   
    96    33   105 1   
    97    34    35 1   
    98    34   106 1   
    99    34   107 1   
   100    35    36 1   
   101    35   108 1   
   102    35   109 1   
   103    36    37 1   
   104    36   110 1   
   105    36   111 1   
   106    37   112 1   
   107    37   113 1   
   108    37   114 1   
   109    39    40 1   
   110    40    41 1   
   111    40   115 1   
   112    40   116 1   
   113    41    42 1   
   114    41    43 1   
   115    41   117 1   
   116    43    44 1   
   117    43   118 1   
   118    43   119 1   
   119    44   120 1   
@<TRIPOS>SUBSTRUCTURE
     1 DGA         1 TEMP              0 ****  ****    0 ROOT
