@<TRIPOS>MOLECULE
DGA
  120   119     1     0     0
SMALL
No Charge or Current Charge


@<TRIPOS>ATOM
      1 CA1         -9.7710    11.7390    -4.8570 c          1 DGA       0.599100
      2 CA2        -10.6020    12.5080    -5.8860 c3         1 DGA      -0.138400
      3 CA3        -11.3460    13.7090    -5.2570 c3         1 DGA      -0.069400
      4 CA4        -12.2610    14.4330    -6.2690 c3         1 DGA      -0.075400
      5 CA5        -13.1180    15.5490    -5.6330 c3         1 DGA      -0.075400
      6 CA6        -14.0670    16.2200    -6.6490 c3         1 DGA      -0.076400
      7 CA7        -15.0240    17.2490    -6.0020 c3         1 DGA      -0.073400
      8 CA8        -15.9640    17.9720    -7.0010 c3         1 DGA      -0.070400
      9 CA9        -16.8590    17.0560    -7.8760 c3         1 DGA      -0.073400
     10 CAA        -17.7980    16.1180    -7.0810 c3         1 DGA      -0.076400
     11 CBA        -18.6590    15.2170    -7.9940 c3         1 DGA      -0.074400
     12 CCA        -19.5760    14.2570    -7.2050 c3         1 DGA      -0.074400
     13 CDA        -20.3830    13.3070    -8.1160 c3         1 DGA      -0.073400
     14 CEA        -21.2980    12.3470    -7.3260 c3         1 DGA      -0.075400
     15 CFA        -22.0720    11.3630    -8.2300 c3         1 DGA      -0.073400
     16 CGA        -23.0140    10.4350    -7.4340 c3         1 DGA      -0.080400
     17 CHA        -23.7640     9.4150    -8.3150 c3         1 DGA      -0.073400
     18 CIA        -24.7130     8.5110    -7.5050 c3         1 DGA      -0.089100
     19 OA1        -10.2630    11.0210    -3.9990 o          1 DGA      -0.483000
     20 CB1         -8.7040     8.2600    -3.9180 c          1 DGA       0.607100
     21 CB2        -10.0070     7.4690    -4.0800 c3         1 DGA      -0.130400
     22 CB3        -10.9990     7.7380    -2.9210 c3         1 DGA      -0.067400
     23 CB4        -12.4470     7.3020    -3.2360 c3         1 DGA      -0.075400
     24 CB5        -13.3980     7.4790    -2.0320 c3         1 DGA      -0.074400
     25 CB6        -14.8820     7.2350    -2.3810 c3         1 DGA      -0.076400
     26 CB7        -15.8040     7.2920    -1.1410 c3         1 DGA      -0.072400
     27 CB8        -17.3140     7.1700    -1.4560 c3         1 DGA      -0.072400
     28 CB9        -17.9260     8.4320    -2.1090 c3         1 DGA      -0.076400
     29 CAB        -19.4500     8.3190    -2.3350 c3         1 DGA      -0.075400
     30 CBB        -20.0780     9.6260    -2.8680 c3         1 DGA      -0.075400
     31 CCB        -21.6030     9.5180    -3.0910 c3         1 DGA      -0.074400
     32 CDB        -22.2450    10.8560    -3.5180 c3         1 DGA      -0.076400
     33 CEB        -23.7630    10.7440    -3.7720 c3         1 DGA      -0.076400
     34 CFB        -24.4070    12.0890    -4.1740 c3         1 DGA      -0.075400
     35 CGB        -25.8980    11.9540    -4.5500 c3         1 DGA      -0.075400
     36 CHB        -26.5360    13.2930    -4.9770 c3         1 DGA      -0.075400
     37 CIB        -28.0220    13.1580    -5.3610 c3         1 DGA      -0.088100
     38 OB1         -7.9410     8.1180    -2.9720 o          1 DGA      -0.486000
     39 OG1         -8.4250    11.9430    -5.0300 os         1 DGA      -0.451100
     40 CG1         -7.4830    11.1230    -4.2950 c3         1 DGA       0.133600
     41 CG2         -7.2100     9.7950    -5.0700 c3         1 DGA       0.153300
     42 OG2         -8.3980     8.9630    -5.0550 os         1 DGA      -0.447100
     43 CG3         -6.8030    10.0390    -6.5500 c3         1 DGA       0.165600
     44 OXT         -6.3630     8.8190    -7.1750 oh         1 DGA      -0.652000
     45 HA21       -11.3420    11.8180    -6.3080 hc         1 DGA       0.071200
     46 HA22        -9.9460    12.8780    -6.6830 hc         1 DGA       0.071200
     47 HA31       -11.9540    13.3520    -4.4160 hc         1 DGA       0.054200
     48 HA32       -10.6170    14.4190    -4.8470 hc         1 DGA       0.054200
     49 HA41       -12.9290    13.6970    -6.7350 hc         1 DGA       0.037700
     50 HA42       -11.6470    14.8590    -7.0730 hc         1 DGA       0.037700
     51 HA51       -13.7120    15.1210    -4.8160 hc         1 DGA       0.039200
     52 HA52       -12.4610    16.3080    -5.1900 hc         1 DGA       0.039200
     53 HA61       -13.4740    16.7140    -7.4290 hc         1 DGA       0.038200
     54 HA62       -14.6570    15.4370    -7.1410 hc         1 DGA       0.038200
     55 HA71       -14.4270    18.0070    -5.4810 hc         1 DGA       0.037700
     56 HA72       -15.6250    16.7520    -5.2310 hc         1 DGA       0.037700
     57 HA81       -16.6070    18.6600    -6.4390 hc         1 DGA       0.037700
     58 HA82       -15.3540    18.5970    -7.6660 hc         1 DGA       0.037700
     59 HA91       -16.2270    16.4590    -8.5440 hc         1 DGA       0.036200
     60 HA92       -17.4700    17.6940    -8.5270 hc         1 DGA       0.036200
     61 HAT1       -17.2030    15.4750    -6.4220 hc         1 DGA       0.038700
     62 HAT2       -18.4530    16.7200    -6.4390 hc         1 DGA       0.038700
     63 HAE1       -19.2740    15.8470    -8.6490 hc         1 DGA       0.036200
     64 HAE2       -17.9980    14.6300    -8.6420 hc         1 DGA       0.036200
     65 HAW1       -20.2680    14.8430    -6.5880 hc         1 DGA       0.036700
     66 HAW2       -18.9630    13.6580    -6.5180 hc         1 DGA       0.036700
     67 HAH1       -20.9950    13.9010    -8.8070 hc         1 DGA       0.037200
     68 HAH2       -19.6880    12.7190    -8.7280 hc         1 DGA       0.037200
     69 HAF1       -20.6890    11.7750    -6.6150 hc         1 DGA       0.037200
     70 HAF2       -22.0120    12.9360    -6.7370 hc         1 DGA       0.037200
     71 HAN1       -22.6600    11.9290    -8.9630 hc         1 DGA       0.036700
     72 HAN2       -21.3560    10.7530    -8.7940 hc         1 DGA       0.036700
     73 HAS1       -22.4340     9.8970    -6.6740 hc         1 DGA       0.039700
     74 HAS2       -23.7510    11.0500    -6.9040 hc         1 DGA       0.039700
     75 HAV1       -23.0360     8.7870    -8.8450 hc         1 DGA       0.036700
     76 HAV2       -24.3430     9.9490    -9.0790 hc         1 DGA       0.036700
     77 HAG1       -25.2230     7.8010    -8.1670 hc         1 DGA       0.031367
     78 HAG2       -25.4750     9.1100    -6.9920 hc         1 DGA       0.031367
     79 HAG3       -24.1570     7.9410    -6.7520 hc         1 DGA       0.031367
     80 HB21        -9.7680     6.4000    -4.1000 hc         1 DGA       0.069200
     81 HB22       -10.4720     7.7400    -5.0350 hc         1 DGA       0.069200
     82 HB31       -10.6450     7.2230    -2.0190 hc         1 DGA       0.057200
     83 HB32       -11.0040     8.8090    -2.6880 hc         1 DGA       0.057200
     84 HB41       -12.4540     6.2500    -3.5490 hc         1 DGA       0.036200
     85 HB42       -12.8200     7.8920    -4.0830 hc         1 DGA       0.036200
     86 HB51       -13.0930     6.7910    -1.2330 hc         1 DGA       0.040200
     87 HB52       -13.2920     8.4960    -1.6330 hc         1 DGA       0.040200
     88 HB61       -15.1970     7.9870    -3.1150 hc         1 DGA       0.037200
     89 HB62       -14.9880     6.2550    -2.8620 hc         1 DGA       0.037200
     90 HB71       -15.6270     8.2260    -0.5930 hc         1 DGA       0.038200
     91 HB72       -15.5230     6.4770    -0.4620 hc         1 DGA       0.038200
     92 HB81       -17.4840     6.2990    -2.1010 hc         1 DGA       0.037200
     93 HB82       -17.8450     6.9720    -0.5170 hc         1 DGA       0.037200
     94 HB91       -17.4380     8.6260    -3.0720 hc         1 DGA       0.038200
     95 HB92       -17.7230     9.2980    -1.4670 hc         1 DGA       0.038200
     96 HBT1       -19.6510     7.5030    -3.0400 hc         1 DGA       0.036700
     97 HBT2       -19.9350     8.0520    -1.3880 hc         1 DGA       0.036700
     98 HBE1       -19.8760    10.4350    -2.1560 hc         1 DGA       0.037200
     99 HBE2       -19.5950     9.9030    -3.8130 hc         1 DGA       0.037200
    100 HBW1       -22.0800     9.1730    -2.1650 hc         1 DGA       0.037200
    101 HBW2       -21.8020     8.7580    -3.8570 hc         1 DGA       0.037200
    102 HBH1       -22.0640    11.6070    -2.7390 hc         1 DGA       0.038200
    103 HBH2       -21.7530    11.2160    -4.4300 hc         1 DGA       0.038200
    104 HBF1       -23.9410    10.0040    -4.5620 hc         1 DGA       0.037700
    105 HBF2       -24.2560    10.3670    -2.8670 hc         1 DGA       0.037700
    106 HBN1       -24.3050    12.7980    -3.3430 hc         1 DGA       0.037200
    107 HBN2       -23.8590    12.5150    -5.0230 hc         1 DGA       0.037200
    108 HBS1       -25.9980    11.2320    -5.3710 hc         1 DGA       0.036700
    109 HBS2       -26.4510    11.5460    -3.6950 hc         1 DGA       0.036700
    110 HBV1       -25.9840    13.7030    -5.8320 hc         1 DGA       0.036700
    111 HBV2       -26.4440    14.0180    -4.1590 hc         1 DGA       0.036700
    112 HBG1       -28.4310    14.1320    -5.6570 hc         1 DGA       0.031367
    113 HBG2       -28.6090    12.7820    -4.5150 hc         1 DGA       0.031367
    114 HBG3       -28.1440    12.4650    -6.2030 hc         1 DGA       0.031367
    115 HG11        -6.5270    11.6570    -4.2070 h1         1 DGA       0.078200
    116 HG12        -7.8260    10.9150    -3.2730 h1         1 DGA       0.078200
    117 HG2         -6.3700     9.2810    -4.5830 h1         1 DGA       0.084700
    118 HG31        -5.9960    10.7840    -6.5760 h1         1 DGA       0.033200
    119 HG32        -7.6590    10.4600    -7.0960 h1         1 DGA       0.033200
    120 HXT         -6.1810     9.0300    -8.1180 ho         1 DGA       0.446000
@<TRIPOS>BOND
     1     1     2 1   
     2     1    19 2   
     3     1    39 1   
     4     2     3 1   
     5     2    45 1   
     6     2    46 1   
     7     3     4 1   
     8     3    47 1   
     9     3    48 1   
    10     4     5 1   
    11     4    49 1   
    12     4    50 1   
    13     5     6 1   
    14     5    51 1   
    15     5    52 1   
    16     6     7 1   
    17     6    53 1   
    18     6    54 1   
    19     7     8 1   
    20     7    55 1   
    21     7    56 1   
    22     8     9 1   
    23     8    57 1   
    24     8    58 1   
    25     9    10 1   
    26     9    59 1   
    27     9    60 1   
    28    10    11 1   
    29    10    61 1   
    30    10    62 1   
    31    11    12 1   
    32    11    63 1   
    33    11    64 1   
    34    12    13 1   
    35    12    65 1   
    36    12    66 1   
    37    13    14 1   
    38    13    67 1   
    39    13    68 1   
    40    14    15 1   
    41    14    69 1   
    42    14    70 1   
    43    15    16 1   
    44    15    71 1   
    45    15    72 1   
    46    16    17 1   
    47    16    73 1   
    48    16    74 1   
    49    17    18 1   
    50    17    75 1   
    51    17    76 1   
    52    18    77 1   
    53    18    78 1   
    54    18    79 1   
    55    20    21 1   
    56    20    38 2   
    57    20    42 1   
    58    21    22 1   
    59    21    80 1   
    60    21    81 1   
    61    22    23 1   
    62    22    82 1   
    63    22    83 1   
    64    23    24 1   
    65    23    84 1   
    66    23    85 1   
    67    24    25 1   
    68    24    86 1   
    69    24    87 1   
    70    25    26 1   
    71    25    88 1   
    72    25    89 1   
    73    26    27 1   
    74    26    90 1   
    75    26    91 1   
    76    27    28 1   
    77    27    92 1   
    78    27    93 1   
    79    28    29 1   
    80    28    94 1   
    81    28    95 1   
    82    29    30 1   
    83    29    96 1   
    84    29    97 1   
    85    30    31 1   
    86    30    98 1   
    87    30    99 1   
    88    31    32 1   
    89    31   100 1   
    90    31   101 1   
    91    32    33 1   
    92    32   102 1   
    93    32   103 1   
    94    33    34 1   
    95    33   104 1   
    96    33   105 1   
    97    34    35 1   
    98    34   106 1   
    99    34   107 1   
   100    35    36 1   
   101    35   108 1   
   102    35   109 1   
   103    36    37 1   
   104    36   110 1   
   105    36   111 1   
   106    37   112 1   
   107    37   113 1   
   108    37   114 1   
   109    39    40 1   
   110    40    41 1   
   111    40   115 1   
   112    40   116 1   
   113    41    42 1   
   114    41    43 1   
   115    41   117 1   
   116    43    44 1   
   117    43   118 1   
   118    43   119 1   
   119    44   120 1   
@<TRIPOS>SUBSTRUCTURE
     1 DGA         1 TEMP              0 ****  ****    0 ROOT
