@<TRIPOS>MOLECULE
DGB
   58    60     1     0     0
SMALL
No Charge or Current Charge


@<TRIPOS>ATOM
      1 OAA         -4.7630    -1.1710     1.8580 o          1 DGB      -0.610100
      2 OAB          6.7120     1.3890    -1.7010 o          1 DGB      -0.597100
      3 CAC         -6.0620    -0.0650     0.1900 ce         1 DGB      -0.292200
      4 CAD         -7.2940    -0.5600     0.5130 cf         1 DGB      -0.078200
      5 CAE          8.7930    -2.9930    -0.2760 ca         1 DGB      -0.095000
      6 CAF          8.3840    -2.2790     0.8610 ca         1 DGB      -0.117500
      7 CAG          8.4600    -2.5190    -1.5550 ca         1 DGB      -0.117500
      8 CAH        -10.9910    -0.6420    -0.2480 ca         1 DGB      -0.166000
      9 CAI        -11.0270     0.2370    -1.3420 ca         1 DGB       0.345900
     10 CAJ         -9.7630    -0.9140     0.3750 ca         1 DGB      -0.053000
     11 CAK          7.6330    -1.0990     0.7220 ca         1 DGB      -0.076500
     12 CAL          7.7100    -1.3390    -1.6970 ca         1 DGB      -0.076500
     13 CAM         -8.7370     0.5780    -1.2290 ca         1 DGB       0.355900
     14 CAN         -1.2990     0.8660     0.1720 c3         1 DGB      -0.095400
     15 CAO          0.1360     0.6950     0.7180 c3         1 DGB      -0.072400
     16 CAP         -2.3360     0.0280     0.9440 c3         1 DGB       0.105000
     17 CAQ          1.1810     1.5320    -0.0580 c3         1 DGB      -0.071400
     18 CAR          3.5570     2.4710    -0.2510 c6         1 DGB      -0.098400
     19 CAS          3.2540     0.0620     0.4680 c6         1 DGB      -0.098400
     20 CAT          5.0000     2.4220     0.3000 c6         1 DGB       0.096000
     21 CAU          4.7150     0.0560     0.9820 c6         1 DGB       0.096000
     22 NAV         -9.9220     0.8420    -1.8320 nb         1 DGB      -0.669000
     23 NAW         -3.6840     0.2090     0.4060 ns         1 DGB      -0.504900
     24 CAX         -4.8040    -0.4070     0.9050 c          1 DGB       0.601300
     25 CAZ         -8.6010    -0.2920    -0.1220 ca         1 DGB      -0.124800
     26 CBA          7.2690    -0.6250    -0.5600 ca         1 DGB      -0.142600
     27 CBB          2.6320     1.4850     0.5100 c6         1 DGB      -0.058700
     28 NBC          5.5610     1.0460     0.2570 n          1 DGB      -0.402800
     29 HAC         -5.9600     0.6270    -0.6420 ha         1 DGB       0.176000
     30 HAD         -7.3440    -1.2530     1.3580 ha         1 DGB       0.199000
     31 HAF          8.6550    -2.6360     1.8520 ha         1 DGB       0.116000
     32 HAG          8.7850    -3.0650    -2.4380 ha         1 DGB       0.116000
     33 HAH        -11.9090    -1.1030     0.1080 ha         1 DGB       0.127000
     34 HAI        -11.9680     0.4640    -1.8420 h4         1 DGB       0.021100
     35 HAJ         -9.7180    -1.5930     1.2250 ha         1 DGB       0.124000
     36 HAK          7.3510    -0.5460     1.6160 ha         1 DGB       0.122000
     37 HAL          7.4610    -0.9830    -2.6950 ha         1 DGB       0.122000
     38 HAM         -7.8740     1.0860    -1.6550 h4         1 DGB       0.017100
     39 HAN         -1.5820     1.9240     0.2240 hc         1 DGB       0.043200
     40 HANA        -1.3190     0.5760    -0.8860 hc         1 DGB       0.043200
     41 HAO          0.1550     0.9860     1.7770 hc         1 DGB       0.043200
     42 HAOA         0.4050    -0.3660     0.6710 hc         1 DGB       0.043200
     43 HAP         -2.0700    -1.0360     0.8830 h1         1 DGB       0.051700
     44 HAPA        -2.3340     0.3240     2.0020 h1         1 DGB       0.051700
     45 HAQ          1.1840     1.2050    -1.1050 hc         1 DGB       0.041200
     46 HAQA         0.8370     2.5750    -0.0680 hc         1 DGB       0.041200
     47 HAR          3.1690     3.4960    -0.1670 hc         1 DGB       0.050450
     48 HARA         3.5680     2.2260    -1.3220 hc         1 DGB       0.050450
     49 HAS          3.2320    -0.3240    -0.5610 hc         1 DGB       0.050450
     50 HASA         2.6640    -0.6360     1.0770 hc         1 DGB       0.050450
     51 HAT          5.6360     3.1170    -0.2670 h1         1 DGB       0.057200
     52 HATA         5.0010     2.7700     1.3430 h1         1 DGB       0.057200
     53 HAU          4.7260     0.2960     2.0550 h1         1 DGB       0.057200
     54 HAUA         5.1080    -0.9620     0.8710 h1         1 DGB       0.057200
     55 HNAW        -3.8120     0.8260    -0.3860 hn         1 DGB       0.313500
     56 HBB          2.5700     1.8090     1.5590 hc         1 DGB       0.045700
     57 CAY          6.4830     0.6580    -0.7440 c          1 DGB       0.615700
     58 HAE          9.3750    -3.9060    -0.1670 ha         1 DGB       0.114000
@<TRIPOS>BOND
     1     1    24 2   
     2     2    57 2   
     3     3     4 2   
     4     3    24 1   
     5     3    29 1   
     6     4    25 1   
     7     4    30 1   
     8     5     6 ar  
     9     5     7 ar  
    10     5    58 1   
    11     6    11 ar  
    12     6    31 1   
    13     7    12 ar  
    14     7    32 1   
    15     8     9 ar  
    16     8    10 ar  
    17     8    33 1   
    18     9    22 ar  
    19     9    34 1   
    20    10    25 ar  
    21    10    35 1   
    22    11    26 ar  
    23    11    36 1   
    24    12    26 ar  
    25    12    37 1   
    26    13    22 ar  
    27    13    25 ar  
    28    13    38 1   
    29    14    15 1   
    30    14    16 1   
    31    14    39 1   
    32    14    40 1   
    33    15    17 1   
    34    15    41 1   
    35    15    42 1   
    36    16    23 1   
    37    16    43 1   
    38    16    44 1   
    39    17    27 1   
    40    17    45 1   
    41    17    46 1   
    42    18    20 1   
    43    18    27 1   
    44    18    47 1   
    45    18    48 1   
    46    19    21 1   
    47    19    27 1   
    48    19    49 1   
    49    19    50 1   
    50    20    28 1   
    51    20    51 1   
    52    20    52 1   
    53    21    28 1   
    54    21    53 1   
    55    21    54 1   
    56    23    24 1   
    57    23    55 1   
    58    26    57 1   
    59    27    56 1   
    60    28    57 1   
@<TRIPOS>SUBSTRUCTURE
     1 DGB         1 TEMP              0 ****  ****    0 ROOT
