@<TRIPOS>MOLECULE
DGB
   58    60     1     0     0
SMALL
abcg2


@<TRIPOS>ATOM
      1 OAA         -4.6000    -1.2140     1.6760 o          1 DGB      -0.610100
      2 OAB          6.9230     1.5270    -1.3770 o          1 DGB      -0.597100
      3 CAC         -5.9340     0.0040     0.1190 ce         1 DGB      -0.292200
      4 CAD         -7.0860    -0.5750     0.4670 cf         1 DGB      -0.078200
      5 CAE          8.4020    -3.0550    -0.2750 ca         1 DGB      -0.095000
      6 CAF          8.2680    -2.2720     0.8640 ca         1 DGB      -0.117500
      7 CAG          7.8800    -2.6130    -1.4840 ca         1 DGB      -0.117500
      8 CAH        -10.7510    -0.8060    -0.2160 ca         1 DGB      -0.166000
      9 CAI        -10.8650     0.1840    -1.1790 ca         1 DGB       0.345900
     10 CAJ         -9.5020    -1.0520     0.3300 ca         1 DGB      -0.053000
     11 CAK          7.6030    -1.0560     0.7980 ca         1 DGB      -0.076500
     12 CAL          7.2350    -1.3870    -1.5560 ca         1 DGB      -0.076500
     13 CAM         -8.6430     0.6680    -1.0720 ca         1 DGB       0.355900
     14 CAN         -1.2340     0.8830     0.0670 c3         1 DGB      -0.095400
     15 CAO          0.1830     0.6750     0.5830 c3         1 DGB      -0.072400
     16 CAP         -2.2400     0.0090     0.7970 c3         1 DGB       0.105000
     17 CAQ          1.2060     1.5280    -0.1580 c3         1 DGB      -0.071400
     18 CAR          3.5390     2.4740    -0.2740 c6         1 DGB      -0.098400
     19 CAS          3.2290     0.1210     0.4790 c6         1 DGB      -0.098400
     20 CAT          4.9400     2.4380     0.3180 c6         1 DGB       0.096000
     21 CAU          4.6490     0.1370     1.0370 c6         1 DGB       0.096000
     22 NAV         -9.8320     0.9110    -1.5980 nb         1 DGB      -0.669000
     23 NAW         -3.5790     0.2530     0.3040 ns         1 DGB      -0.504900
     24 CAX         -4.6610    -0.3820     0.7770 c          1 DGB       0.601300
     25 CAZ         -8.4040    -0.3080    -0.0990 ca         1 DGB      -0.124800
     26 CBA          7.0790    -0.6080    -0.4130 ca         1 DGB      -0.142600
     27 CBB          2.6030     1.5140     0.4590 c6         1 DGB      -0.058700
     28 NBC          5.4800     1.0870     0.3120 n          1 DGB      -0.402800
     29 HAC         -5.8890     0.7620    -0.6550 ha         1 DGB       0.176000
     30 HAD         -7.0600    -1.3310     1.2450 ha         1 DGB       0.199000
     31 HAF          8.6830    -2.6060     1.8060 ha         1 DGB       0.116000
     32 HAG          7.9840    -3.2190    -2.3740 ha         1 DGB       0.116000
     33 HAH        -11.6180    -1.3710     0.0940 ha         1 DGB       0.127000
     34 HAI        -11.8260     0.4010    -1.6310 h4         1 DGB       0.021100
     35 HAJ         -9.3770    -1.8180     1.0850 ha         1 DGB       0.124000
     36 HAK          7.5040    -0.4510     1.6910 ha         1 DGB       0.122000
     37 HAL          6.8430    -1.0410    -2.5040 ha         1 DGB       0.122000
     38 HAM         -7.8300     1.2840    -1.4390 h4         1 DGB       0.017100
     39 HAN         -1.5140     1.9350     0.1830 hc         1 DGB       0.043200
     40 HANA        -1.2730     0.6630    -1.0050 hc         1 DGB       0.043200
     41 HAO          0.2180     0.9150     1.6510 hc         1 DGB       0.043200
     42 HAOA         0.4440    -0.3840     0.4980 hc         1 DGB       0.043200
     43 HAP         -1.9820    -1.0460     0.6640 h1         1 DGB       0.051700
     44 HAPA        -2.1960     0.2110     1.8710 h1         1 DGB       0.051700
     45 HAQ          1.2690     1.2040    -1.2030 hc         1 DGB       0.041200
     46 HAQA         0.8520     2.5650    -0.1830 hc         1 DGB       0.041200
     47 HAR          3.1560     3.4960    -0.2180 hc         1 DGB       0.050450
     48 HARA         3.5870     2.2060    -1.3350 hc         1 DGB       0.050450
     49 HAS          3.2510    -0.2850    -0.5380 hc         1 DGB       0.050450
     50 HASA         2.6380    -0.5680     1.0850 hc         1 DGB       0.050450
     51 HAT          5.6130     3.1000    -0.2190 h1         1 DGB       0.057200
     52 HATA         4.9070     2.7770     1.3590 h1         1 DGB       0.057200
     53 HAU          4.6310     0.4210     2.0940 h1         1 DGB       0.057200
     54 HAUA         5.0750    -0.8610     0.9820 h1         1 DGB       0.057200
     55 HNAW        -3.6920     0.9220    -0.4410 hn         1 DGB       0.313500
     56 HBB          2.5150     1.8600     1.4990 hc         1 DGB       0.045700
     57 CAY          6.4710     0.7540    -0.5400 c          1 DGB       0.615700
     58 HAE          8.9160    -4.0060    -0.2210 ha         1 DGB       0.114000
@<TRIPOS>BOND
     1     1    24 2   
     2     2    57 2   
     3     3     4 2   
     4     3    24 1   
     5     3    29 1   
     6     4    25 1   
     7     4    30 1   
     8     5     6 ar  
     9     5     7 ar  
    10     5    58 1   
    11     6    11 ar  
    12     6    31 1   
    13     7    12 ar  
    14     7    32 1   
    15     8     9 ar  
    16     8    10 ar  
    17     8    33 1   
    18     9    22 ar  
    19     9    34 1   
    20    10    25 ar  
    21    10    35 1   
    22    11    26 ar  
    23    11    36 1   
    24    12    26 ar  
    25    12    37 1   
    26    13    22 ar  
    27    13    25 ar  
    28    13    38 1   
    29    14    15 1   
    30    14    16 1   
    31    14    39 1   
    32    14    40 1   
    33    15    17 1   
    34    15    41 1   
    35    15    42 1   
    36    16    23 1   
    37    16    43 1   
    38    16    44 1   
    39    17    27 1   
    40    17    45 1   
    41    17    46 1   
    42    18    20 1   
    43    18    27 1   
    44    18    47 1   
    45    18    48 1   
    46    19    21 1   
    47    19    27 1   
    48    19    49 1   
    49    19    50 1   
    50    20    28 1   
    51    20    51 1   
    52    20    52 1   
    53    21    28 1   
    54    21    53 1   
    55    21    54 1   
    56    23    24 1   
    57    23    55 1   
    58    26    57 1   
    59    27    56 1   
    60    28    57 1   
@<TRIPOS>SUBSTRUCTURE
     1 DGB         1 TEMP              0 ****  ****    0 ROOT
