@<TRIPOS>MOLECULE
DGD
  162   163     1     0     0
SMALL
abcg2


@<TRIPOS>ATOM
      1 C1A         78.8140    68.3130    18.9640 c          1 DGD       0.596100
      2 C2A         79.7750    69.4150    19.3190 c3         1 DGD      -0.136400
      3 C3A         79.3060    70.7970    18.8960 c3         1 DGD      -0.069400
      4 C4A         78.1540    71.3320    19.7380 c3         1 DGD      -0.079400
      5 C5A         77.8200    72.7750    19.3810 c3         1 DGD      -0.075400
      6 C6A         76.6960    73.4060    20.1970 c3         1 DGD      -0.073400
      7 C7A         76.9890    73.5100    21.6910 c3         1 DGD      -0.076400
      8 C8A         75.9340    74.2880    22.4800 c3         1 DGD      -0.072400
      9 C9A         75.8250    75.7690    22.1220 c3         1 DGD      -0.075400
     10 CAA         77.0380    76.6040    22.5270 c3         1 DGD      -0.075400
     11 CBA         77.0360    78.0060    21.9150 c3         1 DGD      -0.073400
     12 CCA         77.3750    78.0280    20.4230 c3         1 DGD      -0.074400
     13 CDA         78.8430    77.7190    20.1400 c3         1 DGD      -0.077400
     14 CEA         79.1910    77.5980    18.6600 c3         1 DGD      -0.076400
     15 CFA         78.5990    76.3630    17.9900 c3         1 DGD      -0.075400
     16 CGA         79.1860    76.0670    16.6120 c3         1 DGD      -0.073400
     17 CHA         79.0200    77.1840    15.5840 c3         1 DGD      -0.073400
     18 CIA         77.5680    77.5610    15.3220 c3         1 DGD      -0.089100
     19 O1A         78.0000    68.3580    18.0790 o          1 DGD      -0.486000
     20 C1B         77.7120    66.4860    22.7720 c          1 DGD       0.613100
     21 C2B         76.5560    66.9460    23.6180 c3         1 DGD      -0.136400
     22 C3B         76.9270    67.8530    24.7800 c3         1 DGD      -0.065400
     23 C4B         77.2950    69.2780    24.3810 c3         1 DGD      -0.077400
     24 C5B         77.4860    70.1680    25.6060 c3         1 DGD      -0.073400
     25 C6B         77.6830    71.6480    25.2940 c3         1 DGD      -0.073400
     26 C7B         78.9620    72.0030    24.5380 c3         1 DGD      -0.073400
     27 C8B         80.2360    71.6430    25.3030 c3         1 DGD      -0.073400
     28 C9B         81.5280    72.2990    24.8030 c3         1 DGD      -0.071400
     29 CAB         82.2500    71.5940    23.6560 c3         1 DGD      -0.070400
     30 CBB         81.4750    71.4590    22.3480 c3         1 DGD      -0.069400
     31 CCB         80.9580    72.7690    21.7650 c3         1 DGD      -0.083400
     32 CDB         82.0310    73.7500    21.3120 c3         1 DGD      -0.074400
     33 CEB         81.4170    75.0540    20.8140 c3         1 DGD      -0.077400
     34 CFB         82.4150    76.0600    20.2480 c3         1 DGD      -0.073400
     35 CGB         83.0040    75.6400    18.9050 c3         1 DGD      -0.075400
     36 CHB         83.9410    76.6720    18.2820 c3         1 DGD      -0.074400
     37 CIB         83.2400    77.9420    17.8140 c3         1 DGD      -0.090100
     38 O1B         78.8720    66.5350    23.0880 o          1 DGD      -0.486000
     39 O1G         79.0090    67.2400    19.7300 os         1 DGD      -0.447100
     40 C1G         78.2670    66.0550    19.4560 c3         1 DGD       0.148600
     41 C2G         78.1550    65.2750    20.7460 c3         1 DGD       0.132300
     42 O2G         77.2690    65.9680    21.6250 os         1 DGD      -0.447100
     43 C3G         77.5540    63.9020    20.4820 c3         1 DGD       0.154600
     44 O3G         77.3020    63.1980    21.6770 os         1 DGD      -0.409000
     45 C1D         78.3850    62.5560    22.2440 c6         1 DGD       0.394300
     46 C2D         78.0420    62.1960    23.6840 c6         1 DGD       0.156300
     47 O2D         77.8490    63.3900    24.3970 oh         1 DGD      -0.713000
     48 C3D         79.1980    61.3810    24.2550 c6         1 DGD       0.129300
     49 O3D         78.8650    61.0540    25.5810 oh         1 DGD      -0.647000
     50 C4D         79.5070    60.1570    23.3920 c6         1 DGD       0.130300
     51 O4D         78.4610    59.2270    23.4800 oh         1 DGD      -0.704000
     52 C5D         79.7340    60.6400    21.9560 c6         1 DGD       0.152300
     53 O5D         80.8110    58.5810    21.4660 os         1 DGD      -0.499000
     54 C6D         79.8790    59.5040    20.9540 c3         1 DGD       0.174600
     55 O6D         78.6270    61.3930    21.5000 os         1 DGD      -0.483000
     56 C1E         80.7080    57.2660    21.0190 c6         1 DGD       0.396300
     57 C2E         80.8260    56.3280    22.2210 c6         1 DGD       0.150300
     58 O2E         79.8610    56.7210    23.1710 oh         1 DGD      -0.735000
     59 C3E         82.2400    56.3550    22.7820 c6         1 DGD       0.141300
     60 O3E         82.2830    55.4430    23.8510 oh         1 DGD      -0.650000
     61 C4E         83.2400    56.0280    21.6700 c6         1 DGD       0.115300
     62 O4E         83.0580    54.6890    21.2770 oh         1 DGD      -0.695000
     63 C5E         83.0180    57.0150    20.5210 c6         1 DGD       0.138300
     64 O6E         81.6740    56.9670    20.0610 os         1 DGD      -0.437000
     65 C6E         83.9200    56.7350    19.3380 c3         1 DGD       0.168600
     66 O5E         83.8050    57.7920    18.4150 oh         1 DGD      -0.705000
     67 HA21        79.9900    69.3900    20.3900 hc         1 DGD       0.073700
     68 HA22        80.7190    69.1680    18.8200 hc         1 DGD       0.073700
     69 HA31        80.1560    71.4810    18.9840 hc         1 DGD       0.051200
     70 HA32        79.0330    70.7970    17.8380 hc         1 DGD       0.051200
     71 HA41        77.2640    70.7070    19.6080 hc         1 DGD       0.044700
     72 HA42        78.4280    71.2540    20.7950 hc         1 DGD       0.044700
     73 HA51        78.7220    73.3870    19.4910 hc         1 DGD       0.037700
     74 HA52        77.5570    72.8240    18.3200 hc         1 DGD       0.037700
     75 HA61        76.5070    74.4020    19.7870 hc         1 DGD       0.039700
     76 HA62        75.7700    72.8400    20.0500 hc         1 DGD       0.039700
     77 HA71        77.0620    72.5060    22.1180 hc         1 DGD       0.038200
     78 HA72        77.9760    73.9600    21.8400 hc         1 DGD       0.038200
     79 HA81        74.9600    73.8120    22.3270 hc         1 DGD       0.037200
     80 HA82        76.1510    74.1940    23.5490 hc         1 DGD       0.037200
     81 HA91        75.6400    75.8710    21.0490 hc         1 DGD       0.037200
     82 HA92        74.9390    76.1890    22.6090 hc         1 DGD       0.037200
     83 HAT1        77.0610    76.6800    23.6180 hc         1 DGD       0.037700
     84 HAT2        77.9640    76.0930    22.2480 hc         1 DGD       0.037700
     85 HAE1        76.0530    78.4610    22.0750 hc         1 DGD       0.036700
     86 HAE2        77.7520    78.6400    22.4480 hc         1 DGD       0.036700
     87 HAW1        76.7290    77.3230    19.8910 hc         1 DGD       0.037700
     88 HAW2        77.1410    79.0140    20.0110 hc         1 DGD       0.037700
     89 HAH1        79.4560    78.5060    20.5930 hc         1 DGD       0.037200
     90 HAH2        79.1340    76.7890    20.6390 hc         1 DGD       0.037200
     91 HAF1        78.8740    78.5050    18.1340 hc         1 DGD       0.038700
     92 HAF2        80.2810    77.5580    18.5600 hc         1 DGD       0.038700
     93 HAN1        78.7820    75.4950    18.6320 hc         1 DGD       0.038200
     94 HAN2        77.5120    76.4530    17.9180 hc         1 DGD       0.038200
     95 HAS1        80.2540    75.8460    16.7250 hc         1 DGD       0.036200
     96 HAS2        78.7270    75.1540    16.2200 hc         1 DGD       0.036200
     97 HAV1        79.5760    78.0710    15.9040 hc         1 DGD       0.035700
     98 HAV2        79.4850    76.8680    14.6470 hc         1 DGD       0.035700
     99 HAG1        77.4900    78.3160    14.5390 hc         1 DGD       0.031033
    100 HAG2        76.9870    76.6930    15.0020 hc         1 DGD       0.031033
    101 HAG3        77.0870    77.9660    16.2140 hc         1 DGD       0.031033
    102 HB21        75.8050    67.4200    22.9820 hc         1 DGD       0.075200
    103 HB22        76.0830    66.0330    23.9970 hc         1 DGD       0.075200
    104 HB31        76.0650    67.8920    25.4510 hc         1 DGD       0.048200
    105 HB32        77.7390    67.4070    25.3600 hc         1 DGD       0.048200
    106 HB41        78.2000    69.2770    23.7650 hc         1 DGD       0.042700
    107 HB42        76.4990    69.6970    23.7550 hc         1 DGD       0.042700
    108 HB51        76.6030    70.0680    26.2450 hc         1 DGD       0.036700
    109 HB52        78.3250    69.7910    26.1990 hc         1 DGD       0.036700
    110 HB61        76.8210    72.0070    24.7210 hc         1 DGD       0.035700
    111 HB62        77.6730    72.2100    26.2340 hc         1 DGD       0.035700
    112 HB71        78.9520    71.5370    23.5500 hc         1 DGD       0.038200
    113 HB72        78.9540    73.0820    24.3540 hc         1 DGD       0.038200
    114 HB81        80.0870    71.9420    26.3470 hc         1 DGD       0.037700
    115 HB82        80.3680    70.5550    25.3250 hc         1 DGD       0.037700
    116 HB91        81.3250    73.3420    24.5390 hc         1 DGD       0.035200
    117 HB92        82.2300    72.3460    25.6400 hc         1 DGD       0.035200
    118 HBT1        83.1890    72.1240    23.4670 hc         1 DGD       0.035700
    119 HBT2        82.5400    70.5930    23.9910 hc         1 DGD       0.035700
    120 HBE1        82.1190    70.9700    21.6090 hc         1 DGD       0.036700
    121 HBE2        80.6330    70.7750    22.4960 hc         1 DGD       0.036700
    122 HBW1        80.3240    72.5400    20.9070 hc         1 DGD       0.039200
    123 HBW2        80.3000    73.2660    22.4840 hc         1 DGD       0.039200
    124 HBH1        82.7200    73.9740    22.1330 hc         1 DGD       0.037200
    125 HBH2        82.6350    73.2820    20.5280 hc         1 DGD       0.037200
    126 HBF1        80.6620    74.8370    20.0480 hc         1 DGD       0.037200
    127 HBF2        80.8700    75.5140    21.6440 hc         1 DGD       0.037200
    128 HBN1        81.9130    77.0250    20.1410 hc         1 DGD       0.038200
    129 HBN2        83.2250    76.2190    20.9680 hc         1 DGD       0.038200
    130 HBS1        83.5470    74.6980    19.0260 hc         1 DGD       0.036700
    131 HBS2        82.1880    75.4280    18.2040 hc         1 DGD       0.036700
    132 HBV1        84.7260    76.9290    19.0020 hc         1 DGD       0.035700
    133 HBV2        84.4540    76.2180    17.4300 hc         1 DGD       0.035700
    134 HBG1        83.9460    78.6370    17.3570 hc         1 DGD       0.031033
    135 HBG2        82.4750    77.7140    17.0680 hc         1 DGD       0.031033
    136 HBG3        82.7500    78.4680    18.6330 hc         1 DGD       0.031033
    137 HG11        77.2750    66.2870    19.0650 h1         1 DGD       0.061700
    138 HG12        78.7980    65.4620    18.7060 h1         1 DGD       0.061700
    139 HG2         79.1420    65.1770    21.2030 h1         1 DGD       0.082700
    140 HG31        76.5900    64.0070    19.9780 h1         1 DGD       0.064200
    141 HG32        78.2150    63.3490    19.8070 h1         1 DGD       0.064200
    142 HD1         79.2910    63.1900    22.2400 h2         1 DGD       0.030700
    143 HD2         77.1300    61.5790    23.6780 h1         1 DGD       0.087700
    144 HO2D        77.7930    63.1690    25.3330 ho         1 DGD       0.521000
    145 HD3         80.0940    62.0200    24.2270 h1         1 DGD       0.034700
    146 HO3D        79.6690    60.8150    26.0530 ho         1 DGD       0.446000
    147 HD4         80.4490    59.7280    23.7570 h1         1 DGD       0.041700
    148 HO4D        78.8430    58.3460    23.3510 ho         1 DGD       0.531000
    149 HD5         80.6450    61.2600    21.9450 h1         1 DGD       0.042700
    150 HD61        78.9000    59.0320    20.8100 h1         1 DGD       0.052700
    151 HD62        80.2000    59.9010    19.9850 h1         1 DGD       0.052700
    152 HE1         79.7420    57.1040    20.5260 h2         1 DGD       0.088700
    153 HE2         80.6080    55.3140    21.8600 h1         1 DGD       0.079700
    154 HO2E        79.9470    56.1560    23.9470 ho         1 DGD       0.531000
    155 HE3         82.4600    57.3740    23.1310 h1         1 DGD       0.053700
    156 HO3E        83.0480    55.6420    24.3990 ho         1 DGD       0.448000
    157 HE4         84.2550    56.1930    22.0580 h1         1 DGD       0.034700
    158 HO4E        83.8780    54.3580    20.9010 ho         1 DGD       0.503000
    159 HE5         83.2570    58.0190    20.8990 h1         1 DGD       0.066700
    160 HE61        84.9460    56.6370    19.7170 h1         1 DGD       0.025700
    161 HE62        83.6470    55.7730    18.8880 h1         1 DGD       0.025700
    162 HO5E        84.3290    57.5700    17.6410 ho         1 DGD       0.506000
@<TRIPOS>BOND
     1     1     2 1   
     2     1    19 2   
     3     1    39 1   
     4     2     3 1   
     5     2    67 1   
     6     2    68 1   
     7     3     4 1   
     8     3    69 1   
     9     3    70 1   
    10     4     5 1   
    11     4    71 1   
    12     4    72 1   
    13     5     6 1   
    14     5    73 1   
    15     5    74 1   
    16     6     7 1   
    17     6    75 1   
    18     6    76 1   
    19     7     8 1   
    20     7    77 1   
    21     7    78 1   
    22     8     9 1   
    23     8    79 1   
    24     8    80 1   
    25     9    10 1   
    26     9    81 1   
    27     9    82 1   
    28    10    11 1   
    29    10    83 1   
    30    10    84 1   
    31    11    12 1   
    32    11    85 1   
    33    11    86 1   
    34    12    13 1   
    35    12    87 1   
    36    12    88 1   
    37    13    14 1   
    38    13    89 1   
    39    13    90 1   
    40    14    15 1   
    41    14    91 1   
    42    14    92 1   
    43    15    16 1   
    44    15    93 1   
    45    15    94 1   
    46    16    17 1   
    47    16    95 1   
    48    16    96 1   
    49    17    18 1   
    50    17    97 1   
    51    17    98 1   
    52    18    99 1   
    53    18   100 1   
    54    18   101 1   
    55    20    21 1   
    56    20    38 2   
    57    20    42 1   
    58    21    22 1   
    59    21   102 1   
    60    21   103 1   
    61    22    23 1   
    62    22   104 1   
    63    22   105 1   
    64    23    24 1   
    65    23   106 1   
    66    23   107 1   
    67    24    25 1   
    68    24   108 1   
    69    24   109 1   
    70    25    26 1   
    71    25   110 1   
    72    25   111 1   
    73    26    27 1   
    74    26   112 1   
    75    26   113 1   
    76    27    28 1   
    77    27   114 1   
    78    27   115 1   
    79    28    29 1   
    80    28   116 1   
    81    28   117 1   
    82    29    30 1   
    83    29   118 1   
    84    29   119 1   
    85    30    31 1   
    86    30   120 1   
    87    30   121 1   
    88    31    32 1   
    89    31   122 1   
    90    31   123 1   
    91    32    33 1   
    92    32   124 1   
    93    32   125 1   
    94    33    34 1   
    95    33   126 1   
    96    33   127 1   
    97    34    35 1   
    98    34   128 1   
    99    34   129 1   
   100    35    36 1   
   101    35   130 1   
   102    35   131 1   
   103    36    37 1   
   104    36   132 1   
   105    36   133 1   
   106    37   134 1   
   107    37   135 1   
   108    37   136 1   
   109    39    40 1   
   110    40    41 1   
   111    40   137 1   
   112    40   138 1   
   113    41    42 1   
   114    41    43 1   
   115    41   139 1   
   116    43    44 1   
   117    43   140 1   
   118    43   141 1   
   119    44    45 1   
   120    45    46 1   
   121    45    55 1   
   122    45   142 1   
   123    46    47 1   
   124    46    48 1   
   125    46   143 1   
   126    47   144 1   
   127    48    49 1   
   128    48    50 1   
   129    48   145 1   
   130    49   146 1   
   131    50    51 1   
   132    50    52 1   
   133    50   147 1   
   134    51   148 1   
   135    52    54 1   
   136    52    55 1   
   137    52   149 1   
   138    53    54 1   
   139    53    56 1   
   140    54   150 1   
   141    54   151 1   
   142    56    57 1   
   143    56    64 1   
   144    56   152 1   
   145    57    58 1   
   146    57    59 1   
   147    57   153 1   
   148    58   154 1   
   149    59    60 1   
   150    59    61 1   
   151    59   155 1   
   152    60   156 1   
   153    61    62 1   
   154    61    63 1   
   155    61   157 1   
   156    62   158 1   
   157    63    64 1   
   158    63    65 1   
   159    63   159 1   
   160    65    66 1   
   161    65   160 1   
   162    65   161 1   
   163    66   162 1   
@<TRIPOS>SUBSTRUCTURE
     1 DGD         1 TEMP              0 ****  ****    0 ROOT
