@<TRIPOS>MOLECULE
DGD
  162   163     1     0     0
SMALL
No Charge or Current Charge


@<TRIPOS>ATOM
      1 C1A         76.9750    67.6230    17.0950 c          1 DGD       0.596100
      2 C2A         78.3340    68.3040    16.8830 c3         1 DGD      -0.136400
      3 C3A         78.2620    69.8530    16.8680 c3         1 DGD      -0.069400
      4 C4A         77.4570    70.4660    18.0360 c3         1 DGD      -0.079400
      5 C5A         77.7180    71.9780    18.2320 c3         1 DGD      -0.075400
      6 C6A         76.6960    72.7140    19.1370 c3         1 DGD      -0.073400
      7 C7A         76.3180    71.9730    20.4450 c3         1 DGD      -0.076400
      8 C8A         75.5480    72.8340    21.4770 c3         1 DGD      -0.072400
      9 C9A         76.4070    73.8860    22.2220 c3         1 DGD      -0.075400
     10 CAA         77.4190    73.2810    23.2320 c3         1 DGD      -0.075400
     11 CBA         78.3280    74.3230    23.9330 c3         1 DGD      -0.073400
     12 CCA         79.2390    75.1550    22.9940 c3         1 DGD      -0.074400
     13 CDA         80.2850    74.3220    22.2110 c3         1 DGD      -0.077400
     14 CEA         81.0900    75.1410    21.1760 c3         1 DGD      -0.076400
     15 CFA         80.2760    75.5170    19.9110 c3         1 DGD      -0.075400
     16 CGA         81.1190    76.1490    18.7760 c3         1 DGD      -0.073400
     17 CHA         81.8170    77.4870    19.1260 c3         1 DGD      -0.073400
     18 CIA         80.8520    78.6250    19.5210 c3         1 DGD      -0.089100
     19 O1A         76.1440    67.4630    16.2120 o          1 DGD      -0.486000
     20 C1B         75.3250    68.0990    21.2480 c          1 DGD       0.613100
     21 C2B         74.4060    68.7560    22.2810 c3         1 DGD      -0.136400
     22 C3B         74.9600    68.6010    23.7220 c3         1 DGD      -0.065400
     23 C4B         76.2480    69.4170    23.9810 c3         1 DGD      -0.077400
     24 C5B         76.8860    69.1530    25.3630 c3         1 DGD      -0.073400
     25 C6B         78.1490    70.0060    25.6550 c3         1 DGD      -0.073400
     26 C7B         79.3120    69.8710    24.6370 c3         1 DGD      -0.073400
     27 C8B         79.9070    68.4420    24.5160 c3         1 DGD      -0.073400
     28 C9B         81.1070    68.3210    23.5360 c3         1 DGD      -0.071400
     29 CAB         80.7600    67.8830    22.0850 c3         1 DGD      -0.070400
     30 CBB         79.7680    68.7810    21.3060 c3         1 DGD      -0.069400
     31 CCB         80.2430    70.2290    21.0460 c3         1 DGD      -0.083400
     32 CDB         81.3050    70.3670    19.9350 c3         1 DGD      -0.074400
     33 CEB         81.7720    71.8310    19.7750 c3         1 DGD      -0.077400
     34 CFB         82.7200    72.1020    18.5860 c3         1 DGD      -0.073400
     35 CGB         82.0410    71.9730    17.1990 c3         1 DGD      -0.075400
     36 CHB         82.9430    72.3710    16.0070 c3         1 DGD      -0.074400
     37 CIB         83.2880    73.8740    15.9420 c3         1 DGD      -0.090100
     38 O1B         76.3170    68.6380    20.7880 o          1 DGD      -0.486000
     39 O1G         76.8770    67.0970    18.3550 os         1 DGD      -0.447100
     40 C1G         75.7070    66.3330    18.7120 c3         1 DGD       0.148600
     41 C2G         75.8390    65.9510    20.2160 c3         1 DGD       0.132300
     42 O2G         74.9800    66.7920    21.0270 os         1 DGD      -0.447100
     43 C3G         75.4430    64.4770    20.5080 c3         1 DGD       0.154600
     44 O3G         75.5890    64.1710    21.9200 os         1 DGD      -0.409000
     45 C1D         76.8850    64.3730    22.5260 c6         1 DGD       0.394300
     46 C2D         76.8840    64.0210    24.0520 c6         1 DGD       0.156300
     47 O2D         75.9320    64.7930    24.8240 oh         1 DGD      -0.713000
     48 C3D         78.3220    64.2480    24.6160 c6         1 DGD       0.129300
     49 O3D         78.3820    63.8610    26.0000 oh         1 DGD      -0.647000
     50 C4D         79.3770    63.4420    23.7970 c6         1 DGD       0.130300
     51 O4D         79.2130    62.0310    24.0710 oh         1 DGD      -0.704000
     52 C5D         79.2080    63.7790    22.2730 c6         1 DGD       0.152300
     53 O5D         81.5080    63.1880    21.6750 os         1 DGD      -0.499000
     54 C6D         80.1250    62.9240    21.3590 c3         1 DGD       0.174600
     55 O6D         77.8460    63.5460    21.8440 os         1 DGD      -0.483000
     56 C1E         82.4270    62.1050    21.4130 c6         1 DGD       0.396300
     57 C2E         82.7100    61.2420    22.6990 c6         1 DGD       0.150300
     58 O2E         81.5050    60.7680    23.3650 oh         1 DGD      -0.735000
     59 C3E         83.5820    62.0480    23.7160 c6         1 DGD       0.141300
     60 O3E         83.9690    61.2060    24.8160 oh         1 DGD      -0.650000
     61 C4E         84.8610    62.6160    23.0300 c6         1 DGD       0.115300
     62 O4E         85.7340    61.5150    22.6770 oh         1 DGD      -0.695000
     63 C5E         84.4190    63.4620    21.7900 c6         1 DGD       0.138300
     64 O6E         83.6510    62.6450    20.8660 os         1 DGD      -0.437000
     65 C6E         85.6250    64.0970    21.0180 c3         1 DGD       0.168600
     66 O5E         85.2180    64.9090    19.8990 oh         1 DGD      -0.705000
     67 HA21        79.0020    68.0200    17.7050 hc         1 DGD       0.073700
     68 HA22        78.7560    67.9660    15.9300 hc         1 DGD       0.073700
     69 HA31        79.2860    70.2450    16.8850 hc         1 DGD       0.051200
     70 HA32        77.8170    70.1850    15.9210 hc         1 DGD       0.051200
     71 HA41        76.3870    70.2970    17.8630 hc         1 DGD       0.044700
     72 HA42        77.7230    69.9450    18.9620 hc         1 DGD       0.044700
     73 HA51        78.7230    72.1060    18.6530 hc         1 DGD       0.037700
     74 HA52        77.7290    72.4750    17.2540 hc         1 DGD       0.037700
     75 HA61        77.1070    73.7030    19.3690 hc         1 DGD       0.039700
     76 HA62        75.7780    72.8890    18.5620 hc         1 DGD       0.039700
     77 HA71        75.6780    71.1240    20.1780 hc         1 DGD       0.038200
     78 HA72        77.2130    71.5480    20.9090 hc         1 DGD       0.038200
     79 HA81        74.7230    73.3440    20.9650 hc         1 DGD       0.037200
     80 HA82        75.0850    72.1710    22.2190 hc         1 DGD       0.037200
     81 HA91        76.9290    74.5040    21.4850 hc         1 DGD       0.037200
     82 HA92        75.7350    74.5600    22.7680 hc         1 DGD       0.037200
     83 HAT1        76.8560    72.7450    24.0050 hc         1 DGD       0.037700
     84 HAT2        78.0470    72.5290    22.7420 hc         1 DGD       0.037700
     85 HAE1        77.6940    75.0120    24.5060 hc         1 DGD       0.036700
     86 HAE2        78.9570    73.8020    24.6650 hc         1 DGD       0.036700
     87 HAW1        78.6170    75.7300    22.2990 hc         1 DGD       0.037700
     88 HAW2        79.7730    75.8980    23.6010 hc         1 DGD       0.037700
     89 HAH1        80.9830    73.8720    22.9290 hc         1 DGD       0.037200
     90 HAH2        79.7960    73.4900    21.6900 hc         1 DGD       0.037200
     91 HAF1        81.4750    76.0480    21.6570 hc         1 DGD       0.038700
     92 HAF2        81.9650    74.5560    20.8700 hc         1 DGD       0.038700
     93 HAN1        79.7990    74.6130    19.5140 hc         1 DGD       0.038200
     94 HAN2        79.4600    76.1970    20.1810 hc         1 DGD       0.038200
     95 HAS1        81.8820    75.4270    18.4610 hc         1 DGD       0.036200
     96 HAS2        80.4700    76.3070    17.9060 hc         1 DGD       0.036200
     97 HAV1        82.5420    77.3290    19.9340 hc         1 DGD       0.035700
     98 HAV2        82.3970    77.8120    18.2530 hc         1 DGD       0.035700
     99 HAG1        81.4060    79.5610    19.6620 hc         1 DGD       0.031033
    100 HAG2        80.1000    78.7860    18.7390 hc         1 DGD       0.031033
    101 HAG3        80.3360    78.3950    20.4610 hc         1 DGD       0.031033
    102 HB21        74.2950    69.8210    22.0470 hc         1 DGD       0.075200
    103 HB22        73.4300    68.2580    22.2500 hc         1 DGD       0.075200
    104 HB31        74.1900    68.9190    24.4360 hc         1 DGD       0.048200
    105 HB32        75.1530    67.5390    23.9180 hc         1 DGD       0.048200
    106 HB41        76.9850    69.1730    23.2110 hc         1 DGD       0.042700
    107 HB42        76.0230    70.4850    23.8810 hc         1 DGD       0.042700
    108 HB51        76.1410    69.3600    26.1420 hc         1 DGD       0.036700
    109 HB52        77.1360    68.0880    25.4500 hc         1 DGD       0.036700
    110 HB61        77.8540    71.0610    25.7050 hc         1 DGD       0.035700
    111 HB62        78.5220    69.7460    26.6530 hc         1 DGD       0.035700
    112 HB71        78.9750    70.2300    23.6600 hc         1 DGD       0.038200
    113 HB72        80.1120    70.5550    24.9460 hc         1 DGD       0.038200
    114 HB81        80.2450    68.1330    25.5130 hc         1 DGD       0.037700
    115 HB82        79.1270    67.7290    24.2200 hc         1 DGD       0.037700
    116 HB91        81.6740    69.2600    23.5200 hc         1 DGD       0.035200
    117 HB92        81.7960    67.5700    23.9430 hc         1 DGD       0.035200
    118 HBT1        81.6920    67.7980    21.5130 hc         1 DGD       0.035700
    119 HBT2        80.3420    66.8720    22.1260 hc         1 DGD       0.035700
    120 HBE1        79.5390    68.3050    20.3450 hc         1 DGD       0.036700
    121 HBE2        78.8190    68.8090    21.8500 hc         1 DGD       0.036700
    122 HBW1        79.3720    70.8270    20.7580 hc         1 DGD       0.039200
    123 HBW2        80.6220    70.6740    21.9730 hc         1 DGD       0.039200
    124 HBH1        82.1720    69.7360    20.1630 hc         1 DGD       0.037200
    125 HBH2        80.8760    70.0040    18.9940 hc         1 DGD       0.037200
    126 HBF1        80.8950    72.4790    19.6740 hc         1 DGD       0.037200
    127 HBF2        82.2800    72.1340    20.6990 hc         1 DGD       0.037200
    128 HBN1        83.1130    73.1180    18.7020 hc         1 DGD       0.038200
    129 HBN2        83.5810    71.4240    18.6410 hc         1 DGD       0.038200
    130 HBS1        81.7250    70.9340    17.0510 hc         1 DGD       0.036700
    131 HBS2        81.1300    72.5850    17.1790 hc         1 DGD       0.036700
    132 HBV1        83.8710    71.7860    16.0390 hc         1 DGD       0.035700
    133 HBV2        82.4290    72.0940    15.0770 hc         1 DGD       0.035700
    134 HBG1        83.8480    74.0950    15.0260 hc         1 DGD       0.031033
    135 HBG2        82.3750    74.4830    15.9400 hc         1 DGD       0.031033
    136 HBG3        83.9060    74.1780    16.7950 hc         1 DGD       0.031033
    137 HG11        74.7870    66.9130    18.5530 h1         1 DGD       0.061700
    138 HG12        75.6490    65.4240    18.0990 h1         1 DGD       0.061700
    139 HG2         76.8920    66.0810    20.4970 h1         1 DGD       0.082700
    140 HG31        74.4030    64.3180    20.1960 h1         1 DGD       0.064200
    141 HG32        76.0720    63.8090    19.9050 h1         1 DGD       0.064200
    142 HD1         77.1730    65.4300    22.4260 h2         1 DGD       0.030700
    143 HD2         76.6490    62.9490    24.1330 h1         1 DGD       0.087700
    144 HO2D        76.2500    64.7250    25.7560 ho         1 DGD       0.521000
    145 HD3         78.5630    65.3190    24.5230 h1         1 DGD       0.034700
    146 HO3D        78.6570    62.9140    25.9730 ho         1 DGD       0.446000
    147 HD4         80.3800    63.7660    24.1140 h1         1 DGD       0.041700
    148 HO4D        80.0390    61.5770    23.7290 ho         1 DGD       0.531000
    149 HD5         79.4490    64.8380    22.1030 h1         1 DGD       0.042700
    150 HD61        79.8720    61.8630    21.5020 h1         1 DGD       0.052700
    151 HD62        79.9210    63.1780    20.3090 h1         1 DGD       0.052700
    152 HE1         81.9870    61.4410    20.6510 h2         1 DGD       0.088700
    153 HE2         83.3020    60.3780    22.3620 h1         1 DGD       0.079700
    154 HO2E        81.8410    60.2660    24.1520 ho         1 DGD       0.531000
    155 HE3         82.9840    62.8960    24.0870 h1         1 DGD       0.053700
    156 HO3E        84.8320    60.8230    24.5310 ho         1 DGD       0.448000
    157 HE4         85.3700    63.2840    23.7430 h1         1 DGD       0.034700
    158 HO4E        86.6080    61.8930    22.4210 ho         1 DGD       0.503000
    159 HE5         83.7850    64.2930    22.1400 h1         1 DGD       0.066700
    160 HE61        86.2060    64.7040    21.7270 h1         1 DGD       0.025700
    161 HE62        86.2800    63.2870    20.6670 h1         1 DGD       0.025700
    162 HO5E        86.0390    65.1710    19.4200 ho         1 DGD       0.506000
@<TRIPOS>BOND
     1     1     2 1   
     2     1    19 2   
     3     1    39 1   
     4     2     3 1   
     5     2    67 1   
     6     2    68 1   
     7     3     4 1   
     8     3    69 1   
     9     3    70 1   
    10     4     5 1   
    11     4    71 1   
    12     4    72 1   
    13     5     6 1   
    14     5    73 1   
    15     5    74 1   
    16     6     7 1   
    17     6    75 1   
    18     6    76 1   
    19     7     8 1   
    20     7    77 1   
    21     7    78 1   
    22     8     9 1   
    23     8    79 1   
    24     8    80 1   
    25     9    10 1   
    26     9    81 1   
    27     9    82 1   
    28    10    11 1   
    29    10    83 1   
    30    10    84 1   
    31    11    12 1   
    32    11    85 1   
    33    11    86 1   
    34    12    13 1   
    35    12    87 1   
    36    12    88 1   
    37    13    14 1   
    38    13    89 1   
    39    13    90 1   
    40    14    15 1   
    41    14    91 1   
    42    14    92 1   
    43    15    16 1   
    44    15    93 1   
    45    15    94 1   
    46    16    17 1   
    47    16    95 1   
    48    16    96 1   
    49    17    18 1   
    50    17    97 1   
    51    17    98 1   
    52    18    99 1   
    53    18   100 1   
    54    18   101 1   
    55    20    21 1   
    56    20    38 2   
    57    20    42 1   
    58    21    22 1   
    59    21   102 1   
    60    21   103 1   
    61    22    23 1   
    62    22   104 1   
    63    22   105 1   
    64    23    24 1   
    65    23   106 1   
    66    23   107 1   
    67    24    25 1   
    68    24   108 1   
    69    24   109 1   
    70    25    26 1   
    71    25   110 1   
    72    25   111 1   
    73    26    27 1   
    74    26   112 1   
    75    26   113 1   
    76    27    28 1   
    77    27   114 1   
    78    27   115 1   
    79    28    29 1   
    80    28   116 1   
    81    28   117 1   
    82    29    30 1   
    83    29   118 1   
    84    29   119 1   
    85    30    31 1   
    86    30   120 1   
    87    30   121 1   
    88    31    32 1   
    89    31   122 1   
    90    31   123 1   
    91    32    33 1   
    92    32   124 1   
    93    32   125 1   
    94    33    34 1   
    95    33   126 1   
    96    33   127 1   
    97    34    35 1   
    98    34   128 1   
    99    34   129 1   
   100    35    36 1   
   101    35   130 1   
   102    35   131 1   
   103    36    37 1   
   104    36   132 1   
   105    36   133 1   
   106    37   134 1   
   107    37   135 1   
   108    37   136 1   
   109    39    40 1   
   110    40    41 1   
   111    40   137 1   
   112    40   138 1   
   113    41    42 1   
   114    41    43 1   
   115    41   139 1   
   116    43    44 1   
   117    43   140 1   
   118    43   141 1   
   119    44    45 1   
   120    45    46 1   
   121    45    55 1   
   122    45   142 1   
   123    46    47 1   
   124    46    48 1   
   125    46   143 1   
   126    47   144 1   
   127    48    49 1   
   128    48    50 1   
   129    48   145 1   
   130    49   146 1   
   131    50    51 1   
   132    50    52 1   
   133    50   147 1   
   134    51   148 1   
   135    52    54 1   
   136    52    55 1   
   137    52   149 1   
   138    53    54 1   
   139    53    56 1   
   140    54   150 1   
   141    54   151 1   
   142    56    57 1   
   143    56    64 1   
   144    56   152 1   
   145    57    58 1   
   146    57    59 1   
   147    57   153 1   
   148    58   154 1   
   149    59    60 1   
   150    59    61 1   
   151    59   155 1   
   152    60   156 1   
   153    61    62 1   
   154    61    63 1   
   155    61   157 1   
   156    62   158 1   
   157    63    64 1   
   158    63    65 1   
   159    63   159 1   
   160    65    66 1   
   161    65   160 1   
   162    65   161 1   
   163    66   162 1   
@<TRIPOS>SUBSTRUCTURE
     1 DGD         1 TEMP              0 ****  ****    0 ROOT
