@<TRIPOS>MOLECULE
DGF
   35    36     1     0     0
SMALL
bcc


@<TRIPOS>ATOM
      1 CAK         -2.9020     1.7180     0.3270 c5         1 DGF      -0.108400
      2 CAI         -2.7230     2.4310    -1.0100 c5         1 DGF      -0.113400
      3 CAJ         -1.4000     1.8540    -1.4860 c5         1 DGF       0.133400
      4 OAP         -1.4050     0.5040    -1.0530 os         1 DGF      -0.396600
      5 CAY         -2.2350     0.3590     0.0870 c5         1 DGF       0.154100
      6 CAV         -1.4260    -0.1600     1.2780 c5         1 DGF      -0.036900
      7 SAQ         -0.0380     0.9230     1.7210 ss         1 DGF      -0.481200
      8 CAU         -0.7680    -1.4830     0.9640 ce         1 DGF       0.381300
      9 CAS         -1.6350    -2.7320     0.7590 c          1 DGF       0.852300
     10 OAG         -2.7850    -2.6470     1.2280 o          1 DGF      -0.792300
     11 OAE         -1.1090    -3.6870     0.1730 o          1 DGF      -0.792300
     12 NAN          0.4920    -1.5470     0.8930 n2         1 DGF      -0.579900
     13 CAZ          1.1900    -0.3210     1.1440 c5         1 DGF       0.260600
     14 CBA          1.9380     0.1000    -0.1270 c3         1 DGF      -0.218700
     15 CAW          3.0180     1.1640     0.1610 c3         1 DGF       0.157100
     16 CAC          3.5550     1.7720    -1.1240 c3         1 DGF      -0.128100
     17 OAH          2.5590     2.1510     1.0560 oh         1 DGF      -0.592800
     18 CAT          2.6020    -1.1250    -0.7000 c          1 DGF       0.613900
     19 OAF          2.5130    -1.4870    -1.8460 o          1 DGF      -0.522100
     20 H1          -2.3980     2.2740     1.1210 hc         1 DGF       0.051700
     21 H2          -3.9460     1.6070     0.6190 hc         1 DGF       0.051700
     22 H3          -3.5270     2.1770    -1.7030 hc         1 DGF       0.041200
     23 H4          -2.6940     3.5160    -0.9130 hc         1 DGF       0.041200
     24 H5          -1.2820     1.8750    -2.5710 h1         1 DGF       0.035200
     25 H6          -0.5580     2.3990    -1.0400 h1         1 DGF       0.035200
     26 H7          -2.9970    -0.3970    -0.1320 h1         1 DGF       0.098700
     27 H10          1.9100    -0.4830     1.9510 h2         1 DGF       0.079700
     28 H11          1.2120     0.4740    -0.8530 hc         1 DGF       0.097700
     29 H12          3.8400     0.6720     0.6910 h1         1 DGF       0.060700
     30 H13          2.7570     2.2490    -1.6980 hc         1 DGF       0.039367
     31 H14          4.3140     2.5240    -0.9030 hc         1 DGF       0.039367
     32 H15          4.0170     1.0210    -1.7650 hc         1 DGF       0.039367
     33 H16          1.8550     2.6550     0.6300 ho         1 DGF       0.411000
     34 H17          3.2320    -1.6800     0.0200 h4         1 DGF      -0.018800
     35 H18         -2.1030    -0.2680     2.1280 h1         1 DGF       0.109700
@<TRIPOS>BOND
     1     1     2 1   
     2     1     5 1   
     3     1    20 1   
     4     1    21 1   
     5     2     3 1   
     6     2    22 1   
     7     2    23 1   
     8     3     4 1   
     9     3    24 1   
    10     3    25 1   
    11     4     5 1   
    12     5     6 1   
    13     5    26 1   
    14     6     7 1   
    15     6     8 1   
    16     6    35 1   
    17     7    13 1   
    18     8     9 1   
    19     8    12 2   
    20     9    10 1   
    21     9    11 1   
    22    12    13 1   
    23    13    14 1   
    24    13    27 1   
    25    14    15 1   
    26    14    18 1   
    27    14    28 1   
    28    15    16 1   
    29    15    17 1   
    30    15    29 1   
    31    16    30 1   
    32    16    31 1   
    33    16    32 1   
    34    17    33 1   
    35    18    19 2   
    36    18    34 1   
@<TRIPOS>SUBSTRUCTURE
     1 DGF         1 TEMP              0 ****  ****    0 ROOT
