@<TRIPOS>MOLECULE
DGF
   35    36     1     0     0
SMALL
No Charge or Current Charge


@<TRIPOS>ATOM
      1 CAK         -2.8920     1.6960     0.3760 c5         1 DGF      -0.108400
      2 CAI         -2.7620     2.4490    -0.9690 c5         1 DGF      -0.113400
      3 CAJ         -1.3300     2.0220    -1.3560 c5         1 DGF       0.156600
      4 OAP         -1.3210     0.6040    -1.0920 os         1 DGF      -0.443000
      5 CAY         -2.2200     0.3310     0.0140 c5         1 DGF       0.177300
      6 CAV         -1.4300    -0.1900     1.2830 c5         1 DGF       0.011000
      7 SAQ          0.0300     0.8790     1.7170 ss         1 DGF      -0.577000
      8 CAU         -0.8320    -1.5330     0.8660 ce         1 DGF       0.381300
      9 CAS         -1.8260    -2.7160     0.8850 c          1 DGF       0.641700
     10 OAG         -3.0090    -2.5130     1.1420 o          1 DGF      -0.687000
     11 OAE         -1.4120    -3.8490     0.6490 o          1 DGF      -0.687000
     12 NAN          0.4700    -1.6570     0.7530 n2         1 DGF      -0.579900
     13 CAZ          1.2050    -0.4020     1.0640 c5         1 DGF       0.308500
     14 CBA          1.9650     0.0970    -0.1920 c3         1 DGF      -0.218700
     15 CAW          2.9000     1.3110     0.0630 c3         1 DGF       0.180300
     16 CAC          3.7820     1.6940    -1.1460 c3         1 DGF      -0.128100
     17 OAH          2.1090     2.4510     0.3860 oh         1 DGF      -0.655000
     18 CAT          2.7840    -1.0650    -0.7540 c          1 DGF       0.613900
     19 OAF          2.6450    -1.5060    -1.8910 o          1 DGF      -0.522100
     20 H1          -2.3770     2.2330     1.1790 hc         1 DGF       0.051700
     21 H2          -3.9350     1.5740     0.6880 hc         1 DGF       0.051700
     22 H3          -3.4980     2.1080    -1.7070 hc         1 DGF       0.041200
     23 H4          -2.8660     3.5350    -0.8620 hc         1 DGF       0.041200
     24 H5          -1.0920     2.2110    -2.4110 h1         1 DGF       0.035200
     25 H6          -0.5750     2.5110    -0.7260 h1         1 DGF       0.035200
     26 H7          -2.9770    -0.3880    -0.3280 h1         1 DGF       0.098700
     27 H10          1.9400    -0.6110     1.8560 h2         1 DGF       0.079700
     28 H11          1.2480     0.3740    -0.9700 hc         1 DGF       0.097700
     29 H12          3.5650     1.0700     0.9060 h1         1 DGF       0.060700
     30 H13          3.1680     1.8730    -2.0370 hc         1 DGF       0.039367
     31 H14          4.3490     2.6080    -0.9330 hc         1 DGF       0.039367
     32 H15          4.5070     0.9050    -1.3770 hc         1 DGF       0.039367
     33 H16          1.3200     2.0940     0.8670 ho         1 DGF       0.450000
     34 H17          3.5390    -1.4990    -0.0610 h4         1 DGF      -0.018800
     35 H18         -2.0970    -0.2970     2.1480 h1         1 DGF       0.109700
@<TRIPOS>BOND
     1     1     2 1   
     2     1     5 1   
     3     1    20 1   
     4     1    21 1   
     5     2     3 1   
     6     2    22 1   
     7     2    23 1   
     8     3     4 1   
     9     3    24 1   
    10     3    25 1   
    11     4     5 1   
    12     5     6 1   
    13     5    26 1   
    14     6     7 1   
    15     6     8 1   
    16     6    35 1   
    17     7    13 1   
    18     8     9 1   
    19     8    12 2   
    20     9    10 1   
    21     9    11 1   
    22    12    13 1   
    23    13    14 1   
    24    13    27 1   
    25    14    15 1   
    26    14    18 1   
    27    14    28 1   
    28    15    16 1   
    29    15    17 1   
    30    15    29 1   
    31    16    30 1   
    32    16    31 1   
    33    16    32 1   
    34    17    33 1   
    35    18    19 2   
    36    18    34 1   
@<TRIPOS>SUBSTRUCTURE
     1 DGF         1 TEMP              0 ****  ****    0 ROOT
