@<TRIPOS>MOLECULE
DGG
  124   124     1     0     0
SMALL
No Charge or Current Charge


@<TRIPOS>ATOM
      1 C16         24.2400    -9.8440   -16.2040 c3         1 DGG      -0.088100
      2 C15         23.0570    -9.9430   -15.2210 c3         1 DGG      -0.075400
      3 C14         22.7060    -8.5940   -14.5560 c3         1 DGG      -0.075400
      4 C13         21.5150    -8.6960   -13.5760 c3         1 DGG      -0.074400
      5 C12         21.1490    -7.3430   -12.9280 c3         1 DGG      -0.074400
      6 C11         19.9480    -7.4410   -11.9620 c3         1 DGG      -0.074400
      7 C10         19.5540    -6.0800   -11.3500 c3         1 DGG      -0.074400
      8 C9          18.3400    -6.1730   -10.4000 c3         1 DGG      -0.074400
      9 C8          17.9210    -4.8050    -9.8200 c3         1 DGG      -0.073400
     10 C7          16.7050    -4.8990    -8.8720 c3         1 DGG      -0.075400
     11 C6          16.2830    -3.5310    -8.2950 c3         1 DGG      -0.073400
     12 C5          15.0810    -3.6240    -7.3300 c3         1 DGG      -0.075400
     13 C4          14.6770    -2.2550    -6.7400 c3         1 DGG      -0.075400
     14 C3          13.4960    -2.3420    -5.7490 c3         1 DGG      -0.068400
     15 C2          13.1340    -0.9690    -5.1350 c3         1 DGG      -0.140400
     16 C1          12.0140    -1.0830    -4.0970 c          1 DGG       0.593100
     17 O1          12.1950    -1.4600    -2.9480 o          1 DGG      -0.491000
     18 O17         10.8270    -0.5870    -4.5690 os         1 DGG      -0.453100
     19 C17          9.7100    -0.5320    -3.6550 c3         1 DGG       0.168600
     20 C19          8.5100     0.1300    -4.3760 c3         1 DGG       0.164300
     21 O19          7.9610    -0.8250    -5.3170 os         1 DGG      -0.428100
     22 C21          7.2840    -0.3530    -6.4130 c          1 DGG       0.600100
     23 O21          7.2050     0.8290    -6.7170 o          1 DGG      -0.513000
     24 C22          6.8350    -1.4890    -7.3340 c3         1 DGG      -0.150400
     25 C23          5.3180    -1.4290    -7.6350 c3         1 DGG      -0.060400
     26 C24          4.7960    -2.6730    -8.3840 c3         1 DGG      -0.083400
     27 C25          3.2980    -2.5680    -8.7450 c3         1 DGG      -0.069400
     28 C26          2.7390    -3.8500    -9.4000 c3         1 DGG      -0.076400
     29 C27          1.2520    -3.7180    -9.7930 c3         1 DGG      -0.072400
     30 C28          0.6570    -5.0200   -10.3690 c3         1 DGG      -0.046400
     31 C29         -0.7860    -4.8660   -10.8510 cx         1 DGG      -0.110700
     32 C30         -2.0080    -4.9140    -9.9520 cx         1 DGG      -0.114700
     33 C39         -1.7000    -6.0710   -10.8770 cx         1 DGG      -0.137400
     34 C31         -1.9370    -5.0830    -8.4340 c3         1 DGG      -0.043400
     35 C32         -2.0940    -3.7470    -7.6730 c3         1 DGG      -0.072400
     36 C33         -1.8730    -3.8880    -6.1510 c3         1 DGG      -0.075400
     37 C34         -2.0230    -2.5500    -5.3950 c3         1 DGG      -0.075400
     38 C35         -1.7900    -2.6860    -3.8740 c3         1 DGG      -0.074400
     39 C36         -1.9390    -1.3500    -3.1210 c3         1 DGG      -0.089100
     40 C18          7.3960     0.6280    -3.4020 c3         1 DGG       0.217600
     41 P            6.0740    -1.0650    -1.7990 p5         1 DGG       1.402800
     42 OP1          4.8020    -0.3280    -2.0470 o          1 DGG      -0.810000
     43 OP2          7.3600    -0.1880    -2.2160 os         1 DGG      -0.605400
     44 OP3          6.1890    -1.5080    -0.3800 o          1 DGG      -0.810000
     45 OP4          6.2830    -2.3240    -2.7870 os         1 DGG      -0.598400
     46 C40          5.5110    -2.4520    -3.9940 c3         1 DGG       0.190600
     47 C41          4.1460    -3.1120    -3.6450 c3         1 DGG       0.130300
     48 O42          4.3840    -4.2600    -2.8050 oh         1 DGG      -0.676000
     49 C43          3.3520    -3.5380    -4.9080 c3         1 DGG       0.151600
     50 O44          2.1700    -4.2470    -4.5120 oh         1 DGG      -0.654000
     51 H161        24.0140    -9.1390   -17.0140 hc         1 DGG       0.030367
     52 H162        24.4480   -10.8240   -16.6500 hc         1 DGG       0.030367
     53 H163        25.1470    -9.5020   -15.6890 hc         1 DGG       0.030367
     54 H151        22.1780   -10.3210   -15.7580 hc         1 DGG       0.036700
     55 H152        23.3000   -10.6790   -14.4430 hc         1 DGG       0.036700
     56 H141        22.4690    -7.8590   -15.3360 hc         1 DGG       0.036700
     57 H142        23.5850    -8.2170   -14.0170 hc         1 DGG       0.036700
     58 H131        21.7570    -9.4200   -12.7880 hc         1 DGG       0.036700
     59 H132        20.6400    -9.0840   -14.1130 hc         1 DGG       0.036700
     60 H121        20.9170    -6.6180   -13.7180 hc         1 DGG       0.036700
     61 H122        22.0200    -6.9560   -12.3820 hc         1 DGG       0.036700
     62 H111        20.1890    -8.1450   -11.1550 hc         1 DGG       0.036700
     63 H112        19.0860    -7.8550   -12.5020 hc         1 DGG       0.036700
     64 H101        20.4110    -5.6690   -10.8010 hc         1 DGG       0.036700
     65 H102        19.3240    -5.3760   -12.1600 hc         1 DGG       0.036700
     66 HC91        17.4910    -6.6090   -10.9420 hc         1 DGG       0.037200
     67 HC92        18.5790    -6.8580    -9.5760 hc         1 DGG       0.037200
     68 HC81        17.6810    -4.1220   -10.6450 hc         1 DGG       0.036700
     69 HC82        18.7690    -4.3690    -9.2770 hc         1 DGG       0.036700
     70 HC71        15.8580    -5.3400    -9.4130 hc         1 DGG       0.037200
     71 HC72        16.9470    -5.5800    -8.0460 hc         1 DGG       0.037200
     72 HC61        16.0300    -2.8540    -9.1210 hc         1 DGG       0.036200
     73 HC62        17.1350    -3.0860    -7.7660 hc         1 DGG       0.036200
     74 HC51        14.2240    -4.0570    -7.8600 hc         1 DGG       0.039200
     75 HC52        15.3320    -4.3100    -6.5100 hc         1 DGG       0.039200
     76 HC41        14.4120    -1.5740    -7.5590 hc         1 DGG       0.036200
     77 HC42        15.5430    -1.8170    -6.2290 hc         1 DGG       0.036200
     78 HC31        13.7550    -3.0400    -4.9420 hc         1 DGG       0.053200
     79 HC32        12.6180    -2.7560    -6.2610 hc         1 DGG       0.053200
     80 HC21        12.8090    -0.3120    -5.9510 hc         1 DGG       0.068700
     81 HC22        14.0230    -0.5550    -4.6460 hc         1 DGG       0.068700
     82 H171         9.4250    -1.5360    -3.3120 h1         1 DGG       0.075700
     83 H172         9.9700     0.0690    -2.7730 h1         1 DGG       0.075700
     84 H191         8.9040     1.0070    -4.9070 h1         1 DGG       0.055700
     85 H221         7.0850    -2.4510    -6.8720 hc         1 DGG       0.082700
     86 H222         7.3840    -1.4020    -8.2790 hc         1 DGG       0.082700
     87 H231         4.7630    -1.3180    -6.6960 hc         1 DGG       0.045200
     88 H232         5.1080    -0.5310    -8.2310 hc         1 DGG       0.045200
     89 H241         4.9590    -3.5620    -7.7620 hc         1 DGG       0.046200
     90 H242         5.3770    -2.8140    -9.3040 hc         1 DGG       0.046200
     91 H251         2.7190    -2.3510    -7.8390 hc         1 DGG       0.035700
     92 H252         3.1520    -1.7210    -9.4270 hc         1 DGG       0.035700
     93 H261         3.3290    -4.0900   -10.2930 hc         1 DGG       0.038200
     94 H262         2.8550    -4.6890    -8.7020 hc         1 DGG       0.038200
     95 H271         1.1450    -2.9130   -10.5310 hc         1 DGG       0.037700
     96 H272         0.6790    -3.4220    -8.9080 hc         1 DGG       0.037700
     97 H281         0.7350    -5.8150    -9.6170 hc         1 DGG       0.039700
     98 H282         1.2760    -5.3460   -11.2150 hc         1 DGG       0.039700
     99 H291        -0.8540    -4.1870   -11.6990 hc         1 DGG       0.069700
    100 H301        -2.8490    -4.2920   -10.2480 hc         1 DGG       0.068700
    101 H391        -1.3410    -6.9950   -10.4300 hc         1 DGG       0.066200
    102 H392        -2.3340    -6.2060   -11.7500 hc         1 DGG       0.066200
    103 H311        -0.9950    -5.5600    -8.1380 hc         1 DGG       0.039200
    104 H312        -2.7350    -5.7620    -8.1120 hc         1 DGG       0.039200
    105 H321        -1.3870    -3.0110    -8.0720 hc         1 DGG       0.039700
    106 H322        -3.0990    -3.3470    -7.8570 hc         1 DGG       0.039700
    107 H331        -0.8690    -4.2920    -5.9700 hc         1 DGG       0.037200
    108 H332        -2.5900    -4.6140    -5.7480 hc         1 DGG       0.037200
    109 H341        -3.0280    -2.1460    -5.5720 hc         1 DGG       0.037700
    110 H342        -1.3080    -1.8240    -5.8040 hc         1 DGG       0.037700
    111 H351        -2.5030    -3.4110    -3.4600 hc         1 DGG       0.036200
    112 H352        -0.7840    -3.0860    -3.6940 hc         1 DGG       0.036200
    113 H361        -1.7650    -1.4950    -2.0480 hc         1 DGG       0.031033
    114 H362        -2.9490    -0.9410    -3.2530 hc         1 DGG       0.031033
    115 H363        -1.2150    -0.6140    -3.4900 hc         1 DGG       0.031033
    116 H181         6.4270     0.6430    -3.9190 h1         1 DGG       0.036700
    117 H182         7.6250     1.6640    -3.1190 h1         1 DGG       0.036700
    118 H401         5.3370    -1.4730    -4.4590 h1         1 DGG       0.024200
    119 H402         6.0490    -3.0800    -4.7170 h1         1 DGG       0.024200
    120 H411         3.5380    -2.3790    -3.0990 h1         1 DGG       0.029700
    121 H421         5.2270    -4.0500    -2.3360 ho         1 DGG       0.472000
    122 H431         3.9880    -4.1750    -5.5380 h1         1 DGG       0.043700
    123 H432         3.0870    -2.6440    -5.4890 h1         1 DGG       0.043700
    124 H441         2.4460    -4.7500    -3.7110 ho         1 DGG       0.431000
@<TRIPOS>BOND
     1     1     2 1   
     2     1    51 1   
     3     1    52 1   
     4     1    53 1   
     5     2     3 1   
     6     2    54 1   
     7     2    55 1   
     8     3     4 1   
     9     3    56 1   
    10     3    57 1   
    11     4     5 1   
    12     4    58 1   
    13     4    59 1   
    14     5     6 1   
    15     5    60 1   
    16     5    61 1   
    17     6     7 1   
    18     6    62 1   
    19     6    63 1   
    20     7     8 1   
    21     7    64 1   
    22     7    65 1   
    23     8     9 1   
    24     8    66 1   
    25     8    67 1   
    26     9    10 1   
    27     9    68 1   
    28     9    69 1   
    29    10    11 1   
    30    10    70 1   
    31    10    71 1   
    32    11    12 1   
    33    11    72 1   
    34    11    73 1   
    35    12    13 1   
    36    12    74 1   
    37    12    75 1   
    38    13    14 1   
    39    13    76 1   
    40    13    77 1   
    41    14    15 1   
    42    14    78 1   
    43    14    79 1   
    44    15    16 1   
    45    15    80 1   
    46    15    81 1   
    47    16    17 2   
    48    16    18 1   
    49    18    19 1   
    50    19    20 1   
    51    19    82 1   
    52    19    83 1   
    53    20    21 1   
    54    20    40 1   
    55    20    84 1   
    56    21    22 1   
    57    22    23 2   
    58    22    24 1   
    59    24    25 1   
    60    24    85 1   
    61    24    86 1   
    62    25    26 1   
    63    25    87 1   
    64    25    88 1   
    65    26    27 1   
    66    26    89 1   
    67    26    90 1   
    68    27    28 1   
    69    27    91 1   
    70    27    92 1   
    71    28    29 1   
    72    28    93 1   
    73    28    94 1   
    74    29    30 1   
    75    29    95 1   
    76    29    96 1   
    77    30    31 1   
    78    30    97 1   
    79    30    98 1   
    80    31    32 1   
    81    31    33 1   
    82    31    99 1   
    83    32    33 1   
    84    32    34 1   
    85    32   100 1   
    86    33   101 1   
    87    33   102 1   
    88    34    35 1   
    89    34   103 1   
    90    34   104 1   
    91    35    36 1   
    92    35   105 1   
    93    35   106 1   
    94    36    37 1   
    95    36   107 1   
    96    36   108 1   
    97    37    38 1   
    98    37   109 1   
    99    37   110 1   
   100    38    39 1   
   101    38   111 1   
   102    38   112 1   
   103    39   113 1   
   104    39   114 1   
   105    39   115 1   
   106    40    43 1   
   107    40   116 1   
   108    40   117 1   
   109    41    42 1   
   110    41    43 1   
   111    41    44 1   
   112    41    45 1   
   113    45    46 1   
   114    46    47 1   
   115    46   118 1   
   116    46   119 1   
   117    47    48 1   
   118    47    49 1   
   119    47   120 1   
   120    48   121 1   
   121    49    50 1   
   122    49   122 1   
   123    49   123 1   
   124    50   124 1   
@<TRIPOS>SUBSTRUCTURE
     1 DGG         1 TEMP              0 ****  ****    0 ROOT
