@<TRIPOS>MOLECULE
DGG
  124   124     1     0     0
SMALL
bcc


@<TRIPOS>ATOM
      1 C16         25.3690    -9.4250   -16.2780 c3         1 DGG      -0.088100
      2 C15         24.9090    -8.9860   -14.8950 c3         1 DGG      -0.075400
      3 C14         23.4720    -8.4770   -14.8820 c3         1 DGG      -0.075400
      4 C13         23.0010    -8.0400   -13.5010 c3         1 DGG      -0.074400
      5 C12         21.5690    -7.5200   -13.4860 c3         1 DGG      -0.074400
      6 C11         21.1040    -7.0870   -12.1010 c3         1 DGG      -0.074400
      7 C10         19.6760    -6.5550   -12.0780 c3         1 DGG      -0.074400
      8 C9          19.2220    -6.1210   -10.6900 c3         1 DGG      -0.074400
      9 C8          17.7990    -5.5770   -10.6570 c3         1 DGG      -0.073400
     10 C7          17.3600    -5.1420    -9.2640 c3         1 DGG      -0.075400
     11 C6          15.9420    -4.5840    -9.2190 c3         1 DGG      -0.073400
     12 C5          15.5200    -4.1490    -7.8220 c3         1 DGG      -0.075400
     13 C4          14.1090    -3.5750    -7.7630 c3         1 DGG      -0.075400
     14 C3          13.7110    -3.1460    -6.3570 c3         1 DGG      -0.068400
     15 C2          12.3100    -2.5570    -6.3120 c3         1 DGG      -0.140400
     16 C1          11.8830    -2.1310    -4.9340 c          1 DGG       0.642100
     17 O1          12.4840    -2.3600    -3.9140 o          1 DGG      -0.540000
     18 O17         10.7310    -1.4660    -4.9630 os         1 DGG      -0.429900
     19 C17         10.1710    -1.0510    -3.7170 c3         1 DGG       0.145400
     20 C19          8.8770    -0.3310    -4.0270 c3         1 DGG       0.141100
     21 O19          8.0190    -1.2900    -4.6520 os         1 DGG      -0.404900
     22 C21          7.0770    -0.8740    -5.4940 c          1 DGG       0.649100
     23 O21          6.8970     0.2850    -5.7760 o          1 DGG      -0.562000
     24 C22          6.2780    -2.0320    -6.0190 c3         1 DGG      -0.150400
     25 C23          5.1280    -1.6350    -6.9290 c3         1 DGG      -0.060400
     26 C24          4.3270    -2.8540    -7.3640 c3         1 DGG      -0.083400
     27 C25          3.1200    -2.5160    -8.2290 c3         1 DGG      -0.069400
     28 C26          2.4030    -3.7600    -8.7340 c3         1 DGG      -0.076400
     29 C27          1.1790    -3.4650    -9.5910 c3         1 DGG      -0.072400
     30 C28          0.5460    -4.7330   -10.1530 c3         1 DGG      -0.046400
     31 C29         -0.6660    -4.4770   -11.0110 cx         1 DGG      -0.110700
     32 C30         -2.0740    -4.4790   -10.4760 cx         1 DGG      -0.114700
     33 C39         -1.6020    -5.5980   -11.3560 cx         1 DGG      -0.137400
     34 C31         -2.4120    -4.7240    -9.0260 c3         1 DGG      -0.043400
     35 C32         -2.5330    -3.4430    -8.2090 c3         1 DGG      -0.072400
     36 C33         -2.8500    -3.7030    -6.7410 c3         1 DGG      -0.075400
     37 C34         -3.0660    -2.4280    -5.9340 c3         1 DGG      -0.075400
     38 C35         -3.3610    -2.6890    -4.4620 c3         1 DGG      -0.074400
     39 C36         -3.6030    -1.4110    -3.6710 c3         1 DGG      -0.089100
     40 C18          8.2270     0.2370    -2.7790 c3         1 DGG       0.194400
     41 P            6.8720    -0.7020    -0.6680 p5         1 DGG       1.402800
     42 OP1          6.3610     0.7030    -0.6000 o          1 DGG      -0.810000
     43 OP2          7.9930    -0.8120    -1.8670 os         1 DGG      -0.582200
     44 OP3          7.4420    -1.4220     0.5070 o          1 DGG      -0.810000
     45 OP4          5.6910    -1.6940    -1.2420 os         1 DGG      -0.575200
     46 C40          4.7800    -1.2340    -2.2200 c3         1 DGG       0.167400
     47 C41          3.9130    -2.4090    -2.6390 c3         1 DGG       0.107100
     48 O42          4.6880    -3.4650    -3.1590 oh         1 DGG      -0.613800
     49 C43          2.9180    -1.9710    -3.7010 c3         1 DGG       0.128400
     50 O44          2.0510    -2.9960    -4.1160 oh         1 DGG      -0.591800
     51 H161        24.7460   -10.2360   -16.6600 hc         1 DGG       0.030367
     52 H162        26.4010    -9.7800   -16.2650 hc         1 DGG       0.030367
     53 H163        25.3110    -8.6020   -16.9920 hc         1 DGG       0.030367
     54 H151        25.0030    -9.8210   -14.1950 hc         1 DGG       0.036700
     55 H152        25.5720    -8.2000   -14.5190 hc         1 DGG       0.036700
     56 H141        22.8070    -9.2610   -15.2630 hc         1 DGG       0.036700
     57 H142        23.3800    -7.6380   -15.5800 hc         1 DGG       0.036700
     58 H131        23.6710    -7.2630   -13.1180 hc         1 DGG       0.036700
     59 H132        23.0880    -8.8820   -12.8060 hc         1 DGG       0.036700
     60 H121        20.8960    -8.2960   -13.8700 hc         1 DGG       0.036700
     61 H122        21.4820    -6.6760   -14.1790 hc         1 DGG       0.036700
     62 H111        21.7820    -6.3160   -11.7160 hc         1 DGG       0.036700
     63 H112        21.1860    -7.9330   -11.4110 hc         1 DGG       0.036700
     64 H101        19.5930    -5.7080   -12.7690 hc         1 DGG       0.036700
     65 H102        18.9960    -7.3240   -12.4610 hc         1 DGG       0.036700
     66 HC91        19.3020    -6.9690   -10.0020 hc         1 DGG       0.037200
     67 HC92        19.9090    -5.3570   -10.3070 hc         1 DGG       0.037200
     68 HC81        17.1100    -6.3400   -11.0360 hc         1 DGG       0.036700
     69 HC82        17.7190    -4.7280   -11.3450 hc         1 DGG       0.036700
     70 HC71        17.4370    -5.9930    -8.5780 hc         1 DGG       0.037200
     71 HC72        18.0560    -4.3850    -8.8850 hc         1 DGG       0.037200
     72 HC61        15.2430    -5.3400    -9.5940 hc         1 DGG       0.036200
     73 HC62        15.8640    -3.7330    -9.9040 hc         1 DGG       0.036200
     74 HC51        15.5920    -5.0030    -7.1390 hc         1 DGG       0.039200
     75 HC52        16.2270    -3.4010    -7.4450 hc         1 DGG       0.039200
     76 HC41        13.3980    -4.3210    -8.1360 hc         1 DGG       0.036200
     77 HC42        14.0360    -2.7200    -8.4430 hc         1 DGG       0.036200
     78 HC31        14.4310    -2.4110    -5.9860 hc         1 DGG       0.053200
     79 HC32        13.7740    -4.0050    -5.6850 hc         1 DGG       0.053200
     80 HC21        11.5790    -3.2860    -6.6770 hc         1 DGG       0.068700
     81 HC22        12.2280    -1.6990    -6.9850 hc         1 DGG       0.068700
     82 H171        10.0000    -1.9130    -3.0710 h1         1 DGG       0.075700
     83 H172        10.8460    -0.3640    -3.2010 h1         1 DGG       0.075700
     84 H191         9.0810     0.5000    -4.7090 h1         1 DGG       0.055700
     85 H221         5.9040    -2.5990    -5.1600 hc         1 DGG       0.082700
     86 H222         6.9630    -2.7100    -6.5390 hc         1 DGG       0.082700
     87 H231         4.4700    -0.9290    -6.4140 hc         1 DGG       0.045200
     88 H232         5.5070    -1.1100    -7.8110 hc         1 DGG       0.045200
     89 H241         3.9860    -3.4020    -6.4780 hc         1 DGG       0.046200
     90 H242         4.9850    -3.5390    -7.9100 hc         1 DGG       0.046200
     91 H251         2.4220    -1.8970    -7.6540 hc         1 DGG       0.035700
     92 H252         3.4390    -1.9070    -9.0820 hc         1 DGG       0.035700
     93 H261         3.1090    -4.3680    -9.3120 hc         1 DGG       0.038200
     94 H262         2.1020    -4.3780    -7.8800 hc         1 DGG       0.038200
     95 H271         1.4620    -2.8050   -10.4180 hc         1 DGG       0.037700
     96 H272         0.4410    -2.9120    -9.0010 hc         1 DGG       0.037700
     97 H281         0.2930    -5.4100    -9.3310 hc         1 DGG       0.039700
     98 H282         1.2950    -5.2650   -10.7500 hc         1 DGG       0.039700
     99 H291        -0.4870    -3.7610   -11.8100 hc         1 DGG       0.069700
    100 H301        -2.7400    -3.7670   -10.9570 hc         1 DGG       0.068700
    101 H391        -1.4170    -6.5570   -10.8830 hc         1 DGG       0.066200
    102 H392        -1.9880    -5.6730   -12.3650 hc         1 DGG       0.066200
    103 H311        -1.6720    -5.3860    -8.5660 hc         1 DGG       0.039200
    104 H312        -3.3620    -5.2670    -8.9730 hc         1 DGG       0.039200
    105 H321        -1.6050    -2.8660    -8.2830 hc         1 DGG       0.039700
    106 H322        -3.3150    -2.8130    -8.6450 hc         1 DGG       0.039700
    107 H331        -2.0360    -4.2840    -6.2930 hc         1 DGG       0.037200
    108 H332        -3.7450    -4.3310    -6.6690 hc         1 DGG       0.037200
    109 H341        -3.8920    -1.8590    -6.3740 hc         1 DGG       0.037700
    110 H342        -2.1800    -1.7880    -6.0180 hc         1 DGG       0.037700
    111 H351        -4.2340    -3.3430    -4.3790 hc         1 DGG       0.036200
    112 H352        -2.5260    -3.2400    -4.0180 hc         1 DGG       0.036200
    113 H361        -3.7960    -1.6200    -2.6180 hc         1 DGG       0.031033
    114 H362        -4.4610    -0.8610    -4.0610 hc         1 DGG       0.031033
    115 H363        -2.7370    -0.7470    -3.7220 hc         1 DGG       0.031033
    116 H181         7.3080     0.7600    -3.0550 h1         1 DGG       0.036700
    117 H182         8.9020     0.9880    -2.3540 h1         1 DGG       0.036700
    118 H401         4.1490    -0.4330    -1.8220 h1         1 DGG       0.024200
    119 H402         5.2990    -0.8340    -3.1000 h1         1 DGG       0.024200
    120 H411         3.3500    -2.7470    -1.7530 h1         1 DGG       0.029700
    121 H421         5.3970    -3.6440    -2.5310 ho         1 DGG       0.433000
    122 H431         3.4610    -1.6410    -4.5900 h1         1 DGG       0.043700
    123 H432         2.3690    -1.1010    -3.3200 h1         1 DGG       0.043700
    124 H441         1.4650    -3.2100    -3.3830 ho         1 DGG       0.392000
@<TRIPOS>BOND
     1     1     2 1   
     2     1    51 1   
     3     1    52 1   
     4     1    53 1   
     5     2     3 1   
     6     2    54 1   
     7     2    55 1   
     8     3     4 1   
     9     3    56 1   
    10     3    57 1   
    11     4     5 1   
    12     4    58 1   
    13     4    59 1   
    14     5     6 1   
    15     5    60 1   
    16     5    61 1   
    17     6     7 1   
    18     6    62 1   
    19     6    63 1   
    20     7     8 1   
    21     7    64 1   
    22     7    65 1   
    23     8     9 1   
    24     8    66 1   
    25     8    67 1   
    26     9    10 1   
    27     9    68 1   
    28     9    69 1   
    29    10    11 1   
    30    10    70 1   
    31    10    71 1   
    32    11    12 1   
    33    11    72 1   
    34    11    73 1   
    35    12    13 1   
    36    12    74 1   
    37    12    75 1   
    38    13    14 1   
    39    13    76 1   
    40    13    77 1   
    41    14    15 1   
    42    14    78 1   
    43    14    79 1   
    44    15    16 1   
    45    15    80 1   
    46    15    81 1   
    47    16    17 2   
    48    16    18 1   
    49    18    19 1   
    50    19    20 1   
    51    19    82 1   
    52    19    83 1   
    53    20    21 1   
    54    20    40 1   
    55    20    84 1   
    56    21    22 1   
    57    22    23 2   
    58    22    24 1   
    59    24    25 1   
    60    24    85 1   
    61    24    86 1   
    62    25    26 1   
    63    25    87 1   
    64    25    88 1   
    65    26    27 1   
    66    26    89 1   
    67    26    90 1   
    68    27    28 1   
    69    27    91 1   
    70    27    92 1   
    71    28    29 1   
    72    28    93 1   
    73    28    94 1   
    74    29    30 1   
    75    29    95 1   
    76    29    96 1   
    77    30    31 1   
    78    30    97 1   
    79    30    98 1   
    80    31    32 1   
    81    31    33 1   
    82    31    99 1   
    83    32    33 1   
    84    32    34 1   
    85    32   100 1   
    86    33   101 1   
    87    33   102 1   
    88    34    35 1   
    89    34   103 1   
    90    34   104 1   
    91    35    36 1   
    92    35   105 1   
    93    35   106 1   
    94    36    37 1   
    95    36   107 1   
    96    36   108 1   
    97    37    38 1   
    98    37   109 1   
    99    37   110 1   
   100    38    39 1   
   101    38   111 1   
   102    38   112 1   
   103    39   113 1   
   104    39   114 1   
   105    39   115 1   
   106    40    43 1   
   107    40   116 1   
   108    40   117 1   
   109    41    42 1   
   110    41    43 1   
   111    41    44 1   
   112    41    45 1   
   113    45    46 1   
   114    46    47 1   
   115    46   118 1   
   116    46   119 1   
   117    47    48 1   
   118    47    49 1   
   119    47   120 1   
   120    48   121 1   
   121    49    50 1   
   122    49   122 1   
   123    49   123 1   
   124    50   124 1   
@<TRIPOS>SUBSTRUCTURE
     1 DGG         1 TEMP              0 ****  ****    0 ROOT
