@<TRIPOS>MOLECULE
DGH
   20    20     1     0     0
SMALL
abcg2


@<TRIPOS>ATOM
      1 N            3.1320    -0.4310    -2.2900 n8         1 DGH      -0.994200
      2 CA           1.9160    -0.9650    -1.7040 c3         1 DGH       0.050800
      3 C            1.6760    -2.4260    -2.1700 c          1 DGH       0.729000
      4 O            2.6880    -3.0950    -2.4540 o          1 DGH      -0.721000
      5 C1           1.8830    -0.9760    -0.1890 ca         1 DGH      -0.078300
      6 C2           0.7430    -0.5950     0.5080 ca         1 DGH      -0.072500
      7 C3           0.6910    -0.6270     1.8950 ca         1 DGH      -0.180500
      8 C4           1.7990    -1.0520     2.6220 ca         1 DGH       0.095100
      9 O4           1.8130    -1.1000     3.9720 oh         1 DGH      -0.554100
     10 C5           2.9500    -1.4420     1.9400 ca         1 DGH      -0.180500
     11 C6           2.9820    -1.4020     0.5550 ca         1 DGH      -0.072500
     12 OXT          0.4940    -2.8130    -2.1690 o          1 DGH      -0.721000
     13 HN1          3.8370    -1.1570    -2.2860 hn         1 DGH       0.385000
     14 HA2          3.4870     0.3380    -1.7360 hn         1 DGH       0.385000
     15 HB           1.0650    -0.3660    -2.0450 h1         1 DGH       0.054700
     16 HA          -0.1280    -0.2510    -0.0390 ha         1 DGH       0.115500
     17 HD          -0.2100    -0.3110     2.4080 ha         1 DGH       0.099000
     18 HE           0.9700    -0.7960     4.3250 ho         1 DGH       0.447000
     19 HF           3.8170    -1.7760     2.4970 ha         1 DGH       0.099000
     20 HC           3.8900    -1.7100     0.0510 ha         1 DGH       0.115500
@<TRIPOS>BOND
     1     1     2 1   
     2     1    13 1   
     3     1    14 1   
     4     2     3 1   
     5     2     5 1   
     6     2    15 1   
     7     3     4 1   
     8     3    12 1   
     9     5     6 ar  
    10     5    11 ar  
    11     6     7 ar  
    12     6    16 1   
    13     7     8 ar  
    14     7    17 1   
    15     8     9 1   
    16     8    10 ar  
    17     9    18 1   
    18    10    11 ar  
    19    10    19 1   
    20    11    20 1   
@<TRIPOS>SUBSTRUCTURE
     1 DGH         1 TEMP              0 ****  ****    0 ROOT
