@<TRIPOS>MOLECULE
DGH
   20    20     1     0     0
SMALL
No Charge or Current Charge


@<TRIPOS>ATOM
      1 N            2.9970    -0.2230    -2.2360 n8         1 DGH      -0.994200
      2 CA           1.8730    -1.0830    -1.7160 c3         1 DGH       0.050800
      3 C            1.7720    -2.5690    -2.2710 c          1 DGH       0.729000
      4 O            2.7990    -3.2290    -2.3890 o          1 DGH      -0.721000
      5 C1           1.8750    -1.0740    -0.1860 ca         1 DGH      -0.078300
      6 C2           0.8030    -0.4870     0.5190 ca         1 DGH      -0.072500
      7 C3           0.7960    -0.4760     1.9260 ca         1 DGH      -0.180500
      8 C4           1.8590    -1.0520     2.6370 ca         1 DGH       0.095100
      9 O4           1.8560    -1.0440     3.9990 oh         1 DGH      -0.554100
     10 C5           2.9290    -1.6380     1.9460 ca         1 DGH      -0.180500
     11 C6           2.9390    -1.6500     0.5400 ca         1 DGH      -0.072500
     12 OXT          0.6660    -2.9970    -2.5800 o          1 DGH      -0.721000
     13 HN1          3.8890    -0.6580    -1.9690 hn         1 DGH       0.385000
     14 HA2          2.9970     0.6690    -1.7280 hn         1 DGH       0.385000
     15 HB           0.9450    -0.5940    -2.0450 h1         1 DGH       0.054700
     16 HA          -0.0270    -0.0380    -0.0230 ha         1 DGH       0.115500
     17 HD          -0.0380    -0.0200     2.4540 ha         1 DGH       0.099000
     18 HE           1.0370    -0.5970     4.3030 ho         1 DGH       0.447000
     19 HF           3.7540    -2.0850     2.4970 ha         1 DGH       0.099000
     20 HC           3.7740    -2.1090     0.0150 ha         1 DGH       0.115500
@<TRIPOS>BOND
     1     1     2 1   
     2     1    13 1   
     3     1    14 1   
     4     2     3 1   
     5     2     5 1   
     6     2    15 1   
     7     3     4 1   
     8     3    12 1   
     9     5     6 ar  
    10     5    11 ar  
    11     6     7 ar  
    12     6    16 1   
    13     7     8 ar  
    14     7    17 1   
    15     8     9 1   
    16     8    10 ar  
    17     9    18 1   
    18    10    11 ar  
    19    10    19 1   
    20    11    20 1   
@<TRIPOS>SUBSTRUCTURE
     1 DGH         1 TEMP              0 ****  ****    0 ROOT
