@<TRIPOS>MOLECULE
DGJ
   24    24     1     0     0
SMALL
abcg2


@<TRIPOS>ATOM
      1 C1          -0.4340    -1.7380     0.1270 c6         1 DGJ       0.126800
      2 C2          -1.5500    -0.7010     0.2710 c6         1 DGJ       0.091300
      3 O2          -2.8010    -1.1980    -0.1620 oh         1 DGJ      -0.727000
      4 C3          -1.2280     0.5150    -0.5850 c6         1 DGJ       0.139300
      5 O3          -2.1670     1.5540    -0.4170 oh         1 DGJ      -0.673000
      6 C4           0.1490     1.0740    -0.2360 c6         1 DGJ       0.139300
      7 O4           0.1830     1.5850     1.0770 oh         1 DGJ      -0.731000
      8 C5           1.1980    -0.0350    -0.3560 c6         1 DGJ       0.168500
      9 N5           0.8820    -1.2130     0.4340 n7         1 DGJ      -0.829400
     10 C6           2.5870     0.4840    -0.0260 c3         1 DGJ       0.173600
     11 O6           3.5420    -0.4720    -0.4260 oh         1 DGJ      -0.650000
     12 H1          -0.6380    -2.5920     0.7780 h1         1 DGJ       0.061200
     13 H1A         -0.4320    -2.1170    -0.9020 h1         1 DGJ       0.061200
     14 H2          -1.6030    -0.3860     1.3230 h1         1 DGJ       0.045700
     15 HO2         -3.1220    -1.8260     0.4920 ho         1 DGJ       0.511000
     16 H3          -1.1950     0.1880    -1.6370 h1         1 DGJ       0.055700
     17 HO3         -3.0500     1.1680    -0.4290 ho         1 DGJ       0.468000
     18 H4           0.3910     1.8620    -0.9660 h1         1 DGJ       0.053700
     19 HO4         -0.5870     2.1530     1.1960 ho         1 DGJ       0.524000
     20 H5           1.2000    -0.3380    -1.4110 h1         1 DGJ       0.076700
     21 HN5          0.9340    -0.9860     1.4200 hn         1 DGJ       0.419000
     22 H6           2.7370     1.4390    -0.5480 h1         1 DGJ       0.026700
     23 H6A          2.6580     0.6960     1.0480 h1         1 DGJ       0.026700
     24 HO6          4.4090    -0.1500    -0.1670 ho         1 DGJ       0.440000
@<TRIPOS>BOND
     1     1     2 1   
     2     1     9 1   
     3     1    12 1   
     4     1    13 1   
     5     2     3 1   
     6     2     4 1   
     7     2    14 1   
     8     3    15 1   
     9     4     5 1   
    10     4     6 1   
    11     4    16 1   
    12     5    17 1   
    13     6     7 1   
    14     6     8 1   
    15     6    18 1   
    16     7    19 1   
    17     8     9 1   
    18     8    10 1   
    19     8    20 1   
    20     9    21 1   
    21    10    11 1   
    22    10    22 1   
    23    10    23 1   
    24    11    24 1   
@<TRIPOS>SUBSTRUCTURE
     1 DGJ         1 TEMP              0 ****  ****    0 ROOT
