@<TRIPOS>MOLECULE
DGJ
   24    24     1     0     0
SMALL
No Charge or Current Charge


@<TRIPOS>ATOM
      1 C1          -0.4810    -1.7700     0.1130 c6         1 DGJ       0.126800
      2 C2          -1.5970    -0.6910     0.2670 c6         1 DGJ       0.091300
      3 O2          -2.8870    -1.2050    -0.1250 oh         1 DGJ      -0.727000
      4 C3          -1.2440     0.5680    -0.5840 c6         1 DGJ       0.139300
      5 O3          -2.2400     1.5850    -0.3750 oh         1 DGJ      -0.673000
      6 C4           0.1770     1.1100    -0.2360 c6         1 DGJ       0.139300
      7 O4           0.1670     1.6710     1.0940 oh         1 DGJ      -0.731000
      8 C5           1.2330    -0.0400    -0.3860 c6         1 DGJ       0.168500
      9 N5           0.8630    -1.2280     0.4510 n7         1 DGJ      -0.829400
     10 C6           2.6830     0.4650    -0.0640 c3         1 DGJ       0.173600
     11 O6           3.7050    -0.4940    -0.4000 oh         1 DGJ      -0.650000
     12 H1          -0.7030    -2.6240     0.7700 h1         1 DGJ       0.061200
     13 H1A         -0.4740    -2.1450    -0.9220 h1         1 DGJ       0.061200
     14 H2          -1.6290    -0.3930     1.3260 h1         1 DGJ       0.045700
     15 HO2         -3.1210    -1.9280     0.5050 ho         1 DGJ       0.511000
     16 H3          -1.2390     0.2690    -1.6440 h1         1 DGJ       0.055700
     17 HO3         -3.0950     1.0930    -0.3730 ho         1 DGJ       0.468000
     18 H4           0.4250     1.8960    -0.9650 h1         1 DGJ       0.053700
     19 HO4         -0.7210     2.1000     1.1650 ho         1 DGJ       0.524000
     20 H5           1.2370    -0.3460    -1.4440 h1         1 DGJ       0.076700
     21 HN5          0.8510    -0.9130     1.4300 hn         1 DGJ       0.419000
     22 H6           2.8540     1.3930    -0.6260 h1         1 DGJ       0.026700
     23 H6A          2.7400     0.7160     1.0040 h1         1 DGJ       0.026700
     24 HO6          4.5580    -0.1230    -0.0840 ho         1 DGJ       0.440000
@<TRIPOS>BOND
     1     1     2 1   
     2     1     9 1   
     3     1    12 1   
     4     1    13 1   
     5     2     3 1   
     6     2     4 1   
     7     2    14 1   
     8     3    15 1   
     9     4     5 1   
    10     4     6 1   
    11     4    16 1   
    12     5    17 1   
    13     6     7 1   
    14     6     8 1   
    15     6    18 1   
    16     7    19 1   
    17     8     9 1   
    18     8    10 1   
    19     8    20 1   
    20     9    21 1   
    21    10    11 1   
    22    10    22 1   
    23    10    23 1   
    24    11    24 1   
@<TRIPOS>SUBSTRUCTURE
     1 DGJ         1 TEMP              0 ****  ****    0 ROOT
