@<TRIPOS>MOLECULE
DGL
   17    16     1     0     0
SMALL
bcc


@<TRIPOS>ATOM
      1 N           15.9200    -4.6950    28.5020 n8         1 DGL      -0.918800
      2 CA          14.8390    -5.6270    28.7990 c3         1 DGL       0.035500
      3 C           14.9370    -6.1550    30.2550 c          1 DGL       0.916600
      4 O           14.2770    -7.1820    30.5120 o          1 DGL      -0.868800
      5 CB          13.4280    -5.0650    28.5580 c3         1 DGL      -0.065400
      6 CG          13.0490    -4.8700    27.0910 c3         1 DGL      -0.194400
      7 CD          13.6170    -3.6570    26.3250 c          1 DGL       0.928600
      8 OE1         14.0920    -2.7080    26.9870 o          1 DGL      -0.869300
      9 OE2         13.5130    -3.7050    25.0830 o          1 DGL      -0.869300
     10 OXT         15.6440    -5.5060    31.0550 o          1 DGL      -0.868800
     11 H           15.5540    -3.9070    27.9800 hn         1 DGL       0.349300
     12 H2          16.2300    -4.3290    29.3960 hn         1 DGL       0.349300
     13 HA          14.9300    -6.5090    28.1470 h1         1 DGL       0.026700
     14 HB2         12.7130    -5.7690    28.9920 hc         1 DGL       0.021700
     15 HB3         13.3090    -4.1250    29.1070 hc         1 DGL       0.021700
     16 HG2         13.2870    -5.7810    26.5330 hc         1 DGL       0.002200
     17 HG3         11.9570    -4.7800    27.0250 hc         1 DGL       0.002200
@<TRIPOS>BOND
     1     1     2 1   
     2     1    11 1   
     3     1    12 1   
     4     2     3 1   
     5     2     5 1   
     6     2    13 1   
     7     3     4 1   
     8     3    10 1   
     9     5     6 1   
    10     5    14 1   
    11     5    15 1   
    12     6     7 1   
    13     6    16 1   
    14     6    17 1   
    15     7     8 1   
    16     7     9 1   
@<TRIPOS>SUBSTRUCTURE
     1 DGL         1 TEMP              0 ****  ****    0 ROOT
