@<TRIPOS>MOLECULE
DGL
   17    16     1     0     0
SMALL
No Charge or Current Charge


@<TRIPOS>ATOM
      1 N           15.9270    -4.9290    28.2130 n8         1 DGL      -0.918800
      2 CA          14.7910    -5.7550    28.7670 c3         1 DGL       0.035500
      3 C           14.9650    -6.3300    30.2480 c          1 DGL       0.916600
      4 O           14.9650    -7.5470    30.4150 o          1 DGL      -0.868800
      5 CB          13.4380    -4.9940    28.6360 c3         1 DGL      -0.065400
      6 CG          12.9480    -4.7090    27.1850 c3         1 DGL      -0.194400
      7 CD          13.6470    -3.4790    26.5610 c          1 DGL       0.928600
      8 OE1         13.1700    -2.3690    26.7630 o          1 DGL      -0.869300
      9 OE2         14.6690    -3.6520    25.9100 o          1 DGL      -0.869300
     10 OXT         15.1790    -5.5490    31.1720 o          1 DGL      -0.868800
     11 H           15.6260    -4.5190    27.3140 hn         1 DGL       0.349300
     12 H2          16.0720    -4.1180    28.8230 hn         1 DGL       0.349300
     13 HA          14.7170    -6.6350    28.1150 h1         1 DGL       0.026700
     14 HB2         12.6710    -5.6090    29.1230 hc         1 DGL       0.021700
     15 HB3         13.4780    -4.0560    29.2050 hc         1 DGL       0.021700
     16 HG2         13.1560    -5.6170    26.6050 hc         1 DGL       0.002200
     17 HG3         11.8750    -4.5030    27.2910 hc         1 DGL       0.002200
@<TRIPOS>BOND
     1     1     2 1   
     2     1    11 1   
     3     1    12 1   
     4     2     3 1   
     5     2     5 1   
     6     2    13 1   
     7     3     4 1   
     8     3    10 1   
     9     5     6 1   
    10     5    14 1   
    11     5    15 1   
    12     6     7 1   
    13     6    16 1   
    14     6    17 1   
    15     7     8 1   
    16     7     9 1   
@<TRIPOS>SUBSTRUCTURE
     1 DGL         1 TEMP              0 ****  ****    0 ROOT
