@<TRIPOS>MOLECULE
DGN
   19    18     1     0     0
SMALL
bcc


@<TRIPOS>ATOM
      1 N           22.8770    33.3600    29.9760 n8         1 DGN      -0.900800
      2 CA          22.3760    33.5930    28.6270 c3         1 DGN       0.017500
      3 C           21.9440    32.2630    27.9490 c          1 DGN       0.928600
      4 O           21.3090    32.3720    26.8830 o          1 DGN      -0.833300
      5 OXT         22.2940    31.2010    28.5030 o          1 DGN      -0.833300
      6 CB          21.2300    34.6050    28.6460 c3         1 DGN      -0.038400
      7 CG          21.6600    35.9470    29.2200 c3         1 DGN      -0.155400
      8 CD          20.5560    36.9840    29.2370 c          1 DGN       0.668100
      9 OE1         19.3770    36.6880    29.3670 o          1 DGN      -0.612100
     10 NE2         20.9720    38.2580    29.1230 nt         1 DGN      -0.696000
     11 H           23.6530    33.9750    30.1750 hn         1 DGN       0.328300
     12 H2          23.2320    32.4120    30.0090 hn         1 DGN       0.328300
     13 HA          23.1610    34.0080    27.9720 h1         1 DGN      -0.005300
     14 HB2         20.8610    34.7420    27.6290 hc         1 DGN       0.060700
     15 HB3         20.4040    34.2010    29.2370 hc         1 DGN       0.060700
     16 HG2         21.9950    35.8170    30.2550 hc         1 DGN       0.044200
     17 HG3         22.5260    36.3290    28.6710 hc         1 DGN       0.044200
     18 HE21        21.9430    38.4940    29.0220 hn         1 DGN       0.297500
     19 HE22        20.3130    39.0170    29.1840 hn         1 DGN       0.297500
@<TRIPOS>BOND
     1     1     2 1   
     2     1    11 1   
     3     1    12 1   
     4     2     3 1   
     5     2     6 1   
     6     2    13 1   
     7     3     4 1   
     8     3     5 1   
     9     6     7 1   
    10     6    14 1   
    11     6    15 1   
    12     7     8 1   
    13     7    16 1   
    14     7    17 1   
    15     8     9 2   
    16     8    10 1   
    17    10    18 1   
    18    10    19 1   
@<TRIPOS>SUBSTRUCTURE
     1 DGN         1 TEMP              0 ****  ****    0 ROOT
