@<TRIPOS>MOLECULE
DGN
   19    18     1     0     0
SMALL
No Charge or Current Charge


@<TRIPOS>ATOM
      1 N           22.5130    33.0210    30.1610 n8         1 DGN      -0.900800
      2 CA          22.3140    33.5330    28.7530 c3         1 DGN       0.017500
      3 C           21.9800    32.4450    27.6300 c          1 DGN       0.928600
      4 O           20.8120    32.2400    27.3080 o          1 DGN      -0.833300
      5 OXT         22.9140    31.8400    27.1110 o          1 DGN      -0.833300
      6 CB          21.2930    34.7080    28.7460 c3         1 DGN      -0.038400
      7 CG          21.7310    35.9460    29.5720 c3         1 DGN      -0.155400
      8 CD          20.7280    37.0930    29.4230 c          1 DGN       0.668100
      9 OE1         19.7000    37.1790    30.0720 o          1 DGN      -0.612100
     10 NE2         21.0360    38.0420    28.5130 nt         1 DGN      -0.696000
     11 H           22.8180    33.7940    30.7600 hn         1 DGN       0.328300
     12 H2          23.3000    32.3620    30.1700 hn         1 DGN       0.328300
     13 HA          23.2810    33.9650    28.4640 h1         1 DGN      -0.005300
     14 HB2         21.1390    35.0250    27.7060 hc         1 DGN       0.060700
     15 HB3         20.3210    34.3510    29.1090 hc         1 DGN       0.060700
     16 HG2         21.7980    35.6700    30.6310 hc         1 DGN       0.044200
     17 HG3         22.7110    36.2650    29.1970 hc         1 DGN       0.044200
     18 HE21        21.8890    37.9680    27.9780 hn         1 DGN       0.297500
     19 HE22        20.4070    38.8190    28.3780 hn         1 DGN       0.297500
@<TRIPOS>BOND
     1     1     2 1   
     2     1    11 1   
     3     1    12 1   
     4     2     3 1   
     5     2     6 1   
     6     2    13 1   
     7     3     4 1   
     8     3     5 1   
     9     6     7 1   
    10     6    14 1   
    11     6    15 1   
    12     7     8 1   
    13     7    16 1   
    14     7    17 1   
    15     8     9 2   
    16     8    10 1   
    17    10    18 1   
    18    10    19 1   
@<TRIPOS>SUBSTRUCTURE
     1 DGN         1 TEMP              0 ****  ****    0 ROOT
