@<TRIPOS>MOLECULE
DGO
   20    20     1     0     0
SMALL
No Charge or Current Charge


@<TRIPOS>ATOM
      1 C1          -0.4430    -2.0070     0.0440 c2         1 DGO       0.015100
      2 C2           0.8530     0.0480    -0.2760 c6         1 DGO       0.167300
      3 C3          -0.3950     0.8160     0.2470 c6         1 DGO       0.140300
      4 C5           2.1980     0.6190     0.2790 c3         1 DGO       0.168600
      5 C4          -1.6620     0.1440    -0.3550 c6         1 DGO       0.186500
      6 O3           3.3560    -0.1180    -0.1630 oh         1 DGO      -0.651000
      7 O            0.7740    -1.3640     0.0730 os         1 DGO      -0.329100
      8 O2          -0.3650     2.2190    -0.0830 oh         1 DGO      -0.660000
      9 O1          -2.8460     0.6540     0.2570 oh         1 DGO      -0.664000
     10 C           -1.6010    -1.3530    -0.1530 c2         1 DGO      -0.387200
     11 H1          -0.3810    -3.0880     0.1990 h4         1 DGO       0.215000
     12 H2           0.8730     0.1260    -1.3730 h1         1 DGO       0.068700
     13 H3          -0.4290     0.6940     1.3400 h1         1 DGO       0.059700
     14 H4           2.2830     1.6680    -0.0360 h1         1 DGO       0.038200
     15 H5           2.1440     0.6120     1.3760 h1         1 DGO       0.038200
     16 H6          -1.6820     0.3440    -1.4380 h1         1 DGO       0.046700
     17 H7           4.1380     0.2920     0.2680 ho         1 DGO       0.444000
     18 H8          -1.2820     2.5420     0.0750 ho         1 DGO       0.463000
     19 H9          -3.6010     0.2040    -0.1810 ho         1 DGO       0.450000
     20 H10         -2.5450    -1.9000    -0.1730 ha         1 DGO       0.192000
@<TRIPOS>BOND
     1     1     7 1   
     2     1    10 2   
     3     1    11 1   
     4     2     3 1   
     5     2     4 1   
     6     2     7 1   
     7     2    12 1   
     8     3     5 1   
     9     3     8 1   
    10     3    13 1   
    11     4     6 1   
    12     4    14 1   
    13     4    15 1   
    14     5     9 1   
    15     5    10 1   
    16     5    16 1   
    17     6    17 1   
    18     8    18 1   
    19     9    19 1   
    20    10    20 1   
@<TRIPOS>SUBSTRUCTURE
     1 DGO         1 TEMP              0 ****  ****    0 ROOT
