@<TRIPOS>MOLECULE
DGO
   20    20     1     0     0
SMALL
abcg2


@<TRIPOS>ATOM
      1 C1          -0.3900    -1.9720     0.0850 c2         1 DGO       0.015100
      2 C2           0.8300     0.0170    -0.2280 c6         1 DGO       0.167300
      3 C3          -0.4180     0.7630     0.2390 c6         1 DGO       0.140300
      4 C5           2.1070     0.6260     0.3100 c3         1 DGO       0.168600
      5 C4          -1.6530     0.1070    -0.3640 c6         1 DGO       0.186500
      6 O3           3.1980    -0.1030    -0.2000 oh         1 DGO      -0.651000
      7 O            0.7930    -1.3380     0.2110 os         1 DGO      -0.329100
      8 O2          -0.2930     2.1080    -0.1470 oh         1 DGO      -0.660000
      9 O1          -2.7800     0.6430     0.3030 oh         1 DGO      -0.664000
     10 C           -1.5460    -1.3810    -0.2000 c2         1 DGO      -0.387200
     11 H1          -0.2960    -3.0400     0.2420 h4         1 DGO       0.215000
     12 H2           0.8580     0.0250    -1.3270 h1         1 DGO       0.068700
     13 H3          -0.4850     0.6680     1.3350 h1         1 DGO       0.059700
     14 H4           2.1460     1.6770     0.0090 h1         1 DGO       0.038200
     15 H5           2.0780     0.6040     1.4090 h1         1 DGO       0.038200
     16 H6          -1.6930     0.3670    -1.4320 h1         1 DGO       0.046700
     17 H7           4.0050     0.3440     0.0720 ho         1 DGO       0.444000
     18 H8          -1.0840     2.5740     0.1440 ho         1 DGO       0.463000
     19 H9          -3.5620     0.4610    -0.2270 ho         1 DGO       0.450000
     20 H10         -2.4300    -1.9960    -0.3100 ha         1 DGO       0.192000
@<TRIPOS>BOND
     1     1     7 1   
     2     1    10 2   
     3     1    11 1   
     4     2     3 1   
     5     2     4 1   
     6     2     7 1   
     7     2    12 1   
     8     3     5 1   
     9     3     8 1   
    10     3    13 1   
    11     4     6 1   
    12     4    14 1   
    13     4    15 1   
    14     5     9 1   
    15     5    10 1   
    16     5    16 1   
    17     6    17 1   
    18     8    18 1   
    19     9    19 1   
    20    10    20 1   
@<TRIPOS>SUBSTRUCTURE
     1 DGO         1 TEMP              0 ****  ****    0 ROOT
