@<TRIPOS>MOLECULE
DGR
   25    25     1     0     0
SMALL
abcg2


@<TRIPOS>ATOM
      1 OAA          6.0480    -0.5730    -1.0920 o          1 DGR      -0.714000
      2 CAN          5.2340     0.1030    -0.4340 c          1 DGR       0.694200
      3 OAD          5.4700     1.1040     0.2670 o          1 DGR      -0.714000
      4 CAE          3.7940    -0.3690    -0.5150 ce         1 DGR      -0.159200
      5 CAF          2.8000     0.2050     0.1580 cf         1 DGR      -0.355200
      6 CAO          1.4070    -0.2840     0.0630 c          1 DGR       0.613300
      7 OAB          1.0400    -1.1960    -0.6530 o          1 DGR      -0.612100
      8 NAL          0.5520     0.3880     0.8810 ns         1 DGR      -0.386500
      9 NAM         -0.7770     0.1220     0.8670 ns         1 DGR      -0.365500
     10 CAP         -1.5830     0.6480    -0.0870 c          1 DGR       0.617700
     11 OAC         -1.2010     1.4660    -0.9000 o          1 DGR      -0.570100
     12 CAQ         -2.9900     0.1630    -0.0540 ca         1 DGR      -0.194600
     13 CAI         -4.0110     1.0180    -0.4600 ca         1 DGR      -0.028000
     14 CAG         -5.3130     0.5540    -0.4480 ca         1 DGR      -0.179000
     15 CAH         -5.5440    -0.7570    -0.0520 ca         1 DGR       0.343900
     16 NAK         -4.5770    -1.5910     0.3110 nb         1 DGR      -0.676000
     17 CAJ         -3.3320    -1.1360     0.3110 ca         1 DGR       0.362900
     18 HAE          3.5860    -1.2220    -1.1540 ha         1 DGR       0.167000
     19 HAF          3.0000     1.0540     0.8020 ha         1 DGR       0.191000
     20 HAL          0.8540     1.2000     1.3990 hn         1 DGR       0.333500
     21 HAM         -1.1270    -0.5070     1.5740 hn         1 DGR       0.328500
     22 HAI         -3.7880     2.0310    -0.7670 ha         1 DGR       0.138000
     23 HAJ         -2.5660    -1.8520     0.5920 h4         1 DGR       0.031100
     24 HAG         -6.1370     1.1890    -0.7390 ha         1 DGR       0.121000
     25 HAH         -6.5540    -1.1490    -0.0320 h4         1 DGR       0.013100
@<TRIPOS>BOND
     1     1     2 1   
     2     2     3 1   
     3     2     4 1   
     4     4     5 2   
     5     4    18 1   
     6     5     6 1   
     7     5    19 1   
     8     6     7 2   
     9     6     8 1   
    10     8     9 1   
    11     8    20 1   
    12     9    10 1   
    13     9    21 1   
    14    10    11 2   
    15    10    12 1   
    16    12    13 ar  
    17    12    17 ar  
    18    13    14 ar  
    19    13    22 1   
    20    14    15 ar  
    21    14    24 1   
    22    15    16 ar  
    23    15    25 1   
    24    16    17 ar  
    25    17    23 1   
@<TRIPOS>SUBSTRUCTURE
     1 DGR         1 TEMP              0 ****  ****    0 ROOT
