@<TRIPOS>MOLECULE
DGR
   25    25     1     0     0
SMALL
No Charge or Current Charge


@<TRIPOS>ATOM
      1 OAA          6.1500    -0.1300    -1.4030 o          1 DGR      -0.714000
      2 CAN          5.3680     0.2240    -0.5350 c          1 DGR       0.694200
      3 OAD          5.6980     0.8830     0.4410 o          1 DGR      -0.714000
      4 CAE          3.9320    -0.1770    -0.6860 ce         1 DGR      -0.159200
      5 CAF          2.9050     0.1220     0.1770 cf         1 DGR      -0.355200
      6 CAO          1.4970    -0.3010    -0.0190 c          1 DGR       0.613300
      7 OAB          1.1360    -0.9650    -0.9800 o          1 DGR      -0.612100
      8 NAL          0.6240     0.1030     0.9760 ns         1 DGR      -0.386500
      9 NAM         -0.7930    -0.0930     0.9230 ns         1 DGR      -0.365500
     10 CAP         -1.6430     0.6240     0.0880 c          1 DGR       0.617700
     11 OAC         -1.2340     1.5690    -0.5750 o          1 DGR      -0.570100
     12 CAQ         -3.0870     0.2010     0.0460 ca         1 DGR      -0.194600
     13 CAI         -4.0060     0.8800    -0.7830 ca         1 DGR      -0.028000
     14 CAG         -5.3430     0.4550    -0.7950 ca         1 DGR      -0.179000
     15 CAH         -5.7260    -0.6250     0.0130 ca         1 DGR       0.343900
     16 NAK         -4.8570    -1.2840     0.8120 nb         1 DGR      -0.676000
     17 CAJ         -3.5660    -0.8740     0.8230 ca         1 DGR       0.362900
     18 HAE          3.7200    -0.7610    -1.5800 ha         1 DGR       0.167000
     19 HAF          3.1210     0.7070     1.0700 ha         1 DGR       0.191000
     20 HAL          0.9850     0.6920     1.7220 hn         1 DGR       0.333500
     21 HAM         -1.1600    -0.8980     1.4230 hn         1 DGR       0.328500
     22 HAI         -3.6930     1.7170    -1.4060 ha         1 DGR       0.138000
     23 HAJ         -2.9090    -1.4370     1.4830 h4         1 DGR       0.031100
     24 HAG         -6.0780     0.9530    -1.4200 ha         1 DGR       0.121000
     25 HAH         -6.7570    -0.9750     0.0230 h4         1 DGR       0.013100
@<TRIPOS>BOND
     1     1     2 1   
     2     2     3 1   
     3     2     4 1   
     4     4     5 2   
     5     4    18 1   
     6     5     6 1   
     7     5    19 1   
     8     6     7 2   
     9     6     8 1   
    10     8     9 1   
    11     8    20 1   
    12     9    10 1   
    13     9    21 1   
    14    10    11 2   
    15    10    12 1   
    16    12    13 ar  
    17    12    17 ar  
    18    13    14 ar  
    19    13    22 1   
    20    14    15 ar  
    21    14    24 1   
    22    15    16 ar  
    23    15    25 1   
    24    16    17 ar  
    25    17    23 1   
@<TRIPOS>SUBSTRUCTURE
     1 DGR         1 TEMP              0 ****  ****    0 ROOT
