@<TRIPOS>MOLECULE
DGS
   24    25     1     0     0
SMALL
abcg2


@<TRIPOS>ATOM
      1 C1          27.1160     7.3850    11.9370 c6         1 DGS       0.389300
      2 C2          27.4240     5.9410    11.5170 c6         1 DGS       0.190300
      3 C3          28.8520     5.5920    11.9680 c5         1 DGS       0.129300
      4 C4          28.9410     5.7200    13.4790 c5         1 DGS       0.117300
      5 C5          28.8810     7.2500    13.5420 c5         1 DGS       0.110300
      6 C6          29.8780     7.6130    12.4480 c5         1 DGS       0.116600
      7 O1          25.7580     7.6030    11.8820 oh         1 DGS      -0.596000
      8 O2          26.4520     5.0980    12.1040 os         1 DGS      -0.574700
      9 O3          29.7420     6.5840    11.4680 os         1 DGS      -0.459000
     10 O4          30.1740     5.2050    13.9080 oh         1 DGS      -0.702000
     11 O5          27.5570     7.6620    13.2550 os         1 DGS      -0.490000
     12 O7          25.0080     3.1830    12.1050 o          1 DGS      -0.704867
     13 O8          27.4290     2.8220    12.3180 o          1 DGS      -0.704867
     14 O9          26.4910     3.5450    10.1670 o          1 DGS      -0.704867
     15 S           26.3430     3.5210    11.6240 s6         1 DGS       1.491300
     16 H1          27.6400     8.0480    11.2340 h2         1 DGS       0.006700
     17 H2          27.3610     5.8920    10.4240 h1         1 DGS       0.075700
     18 H3          29.1650     4.6190    11.5880 h1         1 DGS       0.129700
     19 H4          28.0980     5.2570    13.9990 h1         1 DGS       0.104700
     20 H5          29.1450     7.6720    14.5140 h1         1 DGS       0.072700
     21 H61         29.6820     8.5920    12.0020 h1         1 DGS       0.041700
     22 H62         30.8960     7.6220    12.8450 h1         1 DGS       0.041700
     23 HO1         25.5960     8.5510    11.8230 ho         1 DGS       0.427000
     24 HO4         30.2470     5.3480    14.8570 ho         1 DGS       0.490000
@<TRIPOS>BOND
     1     1     2 1   
     2     1     7 1   
     3     1    11 1   
     4     1    16 1   
     5     2     3 1   
     6     2     8 1   
     7     2    17 1   
     8     3     4 1   
     9     3     9 1   
    10     3    18 1   
    11     4     5 1   
    12     4    10 1   
    13     4    19 1   
    14     5     6 1   
    15     5    11 1   
    16     5    20 1   
    17     6     9 1   
    18     6    21 1   
    19     6    22 1   
    20     7    23 1   
    21     8    15 1   
    22    10    24 1   
    23    12    15 1   
    24    13    15 1   
    25    14    15 1   
@<TRIPOS>SUBSTRUCTURE
     1 DGS         1 TEMP              0 ****  ****    0 ROOT
