@<TRIPOS>MOLECULE
DGS
   24    25     1     0     0
SMALL
No Charge or Current Charge


@<TRIPOS>ATOM
      1 C1          27.1530     7.5170    11.8280 c6         1 DGS       0.389300
      2 C2          27.4170     6.0080    11.4920 c6         1 DGS       0.190300
      3 C3          28.8290     5.5880    12.0120 c5         1 DGS       0.129300
      4 C4          28.9560     5.8420    13.5430 c5         1 DGS       0.117300
      5 C5          29.0320     7.3980    13.4700 c5         1 DGS       0.110300
      6 C6          30.0190     7.6140    12.2740 c5         1 DGS       0.116600
      7 O1          25.7570     7.7540    11.9180 oh         1 DGS      -0.596000
      8 O2          26.3510     5.1950    12.0680 os         1 DGS      -0.574700
      9 O3          29.8630     6.4390    11.4320 os         1 DGS      -0.459000
     10 O4          30.1320     5.2400    14.1250 oh         1 DGS      -0.702000
     11 O5          27.7210     7.9300    13.0950 os         1 DGS      -0.490000
     12 O7          24.8000     3.3130    11.8380 o          1 DGS      -0.704867
     13 O8          27.0960     2.9390    12.6610 o          1 DGS      -0.704867
     14 O9          26.7190     3.5210    10.2940 o          1 DGS      -0.704867
     15 S           26.2310     3.6020    11.6770 s6         1 DGS       1.491300
     16 H1          27.5850     8.1420    11.0320 h2         1 DGS       0.006700
     17 H2          27.3940     5.9100    10.3970 h1         1 DGS       0.075700
     18 H3          29.0280     4.5420    11.7460 h1         1 DGS       0.129700
     19 H4          28.0510     5.5120    14.0770 h1         1 DGS       0.104700
     20 H5          29.3700     7.8670    14.4040 h1         1 DGS       0.072700
     21 H61         29.8040     8.5240    11.6990 h1         1 DGS       0.041700
     22 H62         31.0600     7.6590    12.6180 h1         1 DGS       0.041700
     23 HO1         25.4180     6.8800    12.2120 ho         1 DGS       0.427000
     24 HO4         30.0890     5.3890    15.0980 ho         1 DGS       0.490000
@<TRIPOS>BOND
     1     1     2 1   
     2     1     7 1   
     3     1    11 1   
     4     1    16 1   
     5     2     3 1   
     6     2     8 1   
     7     2    17 1   
     8     3     4 1   
     9     3     9 1   
    10     3    18 1   
    11     4     5 1   
    12     4    10 1   
    13     4    19 1   
    14     5     6 1   
    15     5    11 1   
    16     5    20 1   
    17     6     9 1   
    18     6    21 1   
    19     6    22 1   
    20     7    23 1   
    21     8    15 1   
    22    10    24 1   
    23    12    15 1   
    24    13    15 1   
    25    14    15 1   
@<TRIPOS>SUBSTRUCTURE
     1 DGS         1 TEMP              0 ****  ****    0 ROOT
