@<TRIPOS>MOLECULE
DGU
   22    21     1     0     0
SMALL
bcc


@<TRIPOS>ATOM
      1 OAA         -4.3580     0.0020    -0.3030 o          1 DGU      -0.545100
      2 OAB         -2.2090     1.6120    -0.1650 oh         1 DGU      -0.580800
      3 OAC          1.6270    -1.7840     0.5060 oh         1 DGU      -0.660800
      4 CAE         -3.4000    -0.4210     0.2950 c          1 DGU       0.552900
      5 CAF         -2.1360     0.3720     0.4750 c3         1 DGU      -0.003900
      6 CAG         -0.9690    -0.4630    -0.0660 c3         1 DGU       0.107100
      7 CAH          0.3850     0.2410     0.1240 c3         1 DGU       0.129100
      8 CAI          1.5500    -0.6440    -0.3160 c3         1 DGU      -0.041900
      9 CAJ          2.8820     0.1370    -0.2230 c          1 DGU       0.911600
     10 OAK         -1.1960    -0.7950    -1.4160 oh         1 DGU      -0.599800
     11 OAL          0.5500     0.6460     1.4630 oh         1 DGU      -0.590800
     12 OAM          3.7380    -0.3840     0.5280 o          1 DGU      -0.819300
     13 HAE         -3.4000    -1.4200     0.7610 h4         1 DGU      -0.003800
     14 HAF         -2.0050     0.4880     1.5620 h1         1 DGU       0.082700
     15 HAG         -0.9560    -1.4090     0.4870 h1         1 DGU       0.077700
     16 HAH          0.3980     1.1480    -0.4880 h1         1 DGU       0.096700
     17 HAI          1.4000    -0.9310    -1.3650 h1         1 DGU       0.049700
     18 HOAK        -1.2430     0.0230    -1.9240 ho         1 DGU       0.408000
     19 HOAL         0.7420    -0.1460     1.9790 ho         1 DGU       0.400000
     20 HOAB        -3.0870     1.6960    -0.5610 ho         1 DGU       0.411000
     21 OAD          2.9900     1.1760    -0.8890 o          1 DGU      -0.819300
     22 HOAC         2.5260    -1.7000     0.8810 ho         1 DGU       0.440000
@<TRIPOS>BOND
     1     1     4 2   
     2     2     5 1   
     3     2    20 1   
     4     3     8 1   
     5     3    22 1   
     6     4     5 1   
     7     4    13 1   
     8     5     6 1   
     9     5    14 1   
    10     6     7 1   
    11     6    10 1   
    12     6    15 1   
    13     7     8 1   
    14     7    11 1   
    15     7    16 1   
    16     8     9 1   
    17     8    17 1   
    18     9    12 1   
    19     9    21 1   
    20    10    18 1   
    21    11    19 1   
@<TRIPOS>SUBSTRUCTURE
     1 DGU         1 TEMP              0 ****  ****    0 ROOT
