@<TRIPOS>MOLECULE
DGU
   22    21     1     0     0
SMALL
No Charge or Current Charge


@<TRIPOS>ATOM
      1 OAA         -4.5740    -0.1310    -0.1720 o          1 DGU      -0.545100
      2 OAB         -2.3360     1.5550    -0.6660 oh         1 DGU      -0.703000
      3 OAC          1.8190    -1.7210     0.9270 oh         1 DGU      -0.783000
      4 CAE         -3.4950    -0.4610     0.3180 c          1 DGU       0.552900
      5 CAF         -2.2110     0.4160     0.2470 c3         1 DGU       0.019300
      6 CAG         -0.9780    -0.4350    -0.1670 c3         1 DGU       0.130300
      7 CAH          0.3860     0.1860     0.2870 c3         1 DGU       0.152300
      8 CAI          1.6240    -0.6790    -0.0930 c3         1 DGU      -0.018700
      9 CAJ          2.9160     0.1860    -0.3300 c          1 DGU       0.701000
     10 OAK         -1.0390    -0.5420    -1.5970 oh         1 DGU      -0.722000
     11 OAL          0.4410     0.2790     1.7140 oh         1 DGU      -0.713000
     12 OAM          3.9550    -0.2050     0.1890 o          1 DGU      -0.714000
     13 HAE         -3.3860    -1.4270     0.8580 h4         1 DGU      -0.003800
     14 HAF         -2.0560     0.7680     1.2760 h1         1 DGU       0.082700
     15 HAG         -1.0550    -1.4310     0.2930 h1         1 DGU       0.077700
     16 HAH          0.4700     1.1820    -0.1720 h1         1 DGU       0.096700
     17 HAI          1.4300    -1.1530    -1.0650 h1         1 DGU       0.049700
     18 HOAK        -1.4900     0.3050    -1.8500 ho         1 DGU       0.507000
     19 HOAL         0.9720    -0.5390     1.9150 ho         1 DGU       0.499000
     20 HOAB        -3.2130     1.9800    -0.4950 ho         1 DGU       0.510000
     21 OAD          2.8480     1.1870    -1.0290 o          1 DGU      -0.714000
     22 HOAC         2.8010    -1.8750     0.9570 ho         1 DGU       0.539000
@<TRIPOS>BOND
     1     1     4 2   
     2     2     5 1   
     3     2    20 1   
     4     3     8 1   
     5     3    22 1   
     6     4     5 1   
     7     4    13 1   
     8     5     6 1   
     9     5    14 1   
    10     6     7 1   
    11     6    10 1   
    12     6    15 1   
    13     7     8 1   
    14     7    11 1   
    15     7    16 1   
    16     8     9 1   
    17     8    17 1   
    18     9    12 1   
    19     9    21 1   
    20    10    18 1   
    21    11    19 1   
@<TRIPOS>SUBSTRUCTURE
     1 DGU         1 TEMP              0 ****  ****    0 ROOT
