@<TRIPOS>MOLECULE
DGV
   65    68     1     0     0
SMALL
abcg2


@<TRIPOS>ATOM
      1 CLAY         5.0320     2.5800    -1.1930 cl         1 DGV      -0.199500
      2 CBA          6.4270     1.6170    -0.8070 ca         1 DGV       0.127000
      3 CBB          7.6400     2.1280    -1.2440 ca         1 DGV      -0.104000
      4 CBF          8.8090     1.4390    -0.9780 ca         1 DGV      -0.096000
      5 CBE          8.7540     0.2470    -0.2790 ca         1 DGV      -0.104000
      6 CBD          7.5270    -0.2400     0.1430 ca         1 DGV       0.127000
      7 CLBC         7.5720    -1.7460     1.0150 cl         1 DGV      -0.199500
      8 CAZ          6.3100     0.4150    -0.0990 ca         1 DGV      -0.043300
      9 CAX          5.0020    -0.1680     0.3880 c6         1 DGV      -0.020400
     10 CAU          4.0200    -0.5430    -0.7250 c6         1 DGV      -0.067900
     11 CAT          2.7920    -1.2080    -0.1230 c6         1 DGV       0.166800
     12 CAW          4.3020     0.6680     1.4630 c6         1 DGV      -0.067900
     13 CAV          3.0560    -0.0590     1.9490 c6         1 DGV       0.166800
     14 NAS          2.1480    -0.3420     0.8510 n3         1 DGV      -0.719600
     15 CAR          0.8900    -0.8890     1.3250 c3         1 DGV       0.173800
     16 CAQ         -0.2240    -0.7840     0.2910 c3         1 DGV      -0.097400
     17 CAP         -1.5420    -1.3090     0.8360 c3         1 DGV       0.102000
     18 NAO         -2.5970    -1.1190    -0.1390 ns         1 DGV      -0.506900
     19 C           -3.8460    -1.5720     0.0300 c          1 DGV       0.563100
     20 O           -4.1940    -2.2020     1.0210 o          1 DGV      -0.606100
     21 CD          -7.0660    -1.6810    -0.5360 c5         1 DGV       0.183800
     22 CG          -6.7800    -2.5520    -1.7470 c5         1 DGV      -0.079400
     23 CB          -5.2490    -2.5540    -1.8210 c5         1 DGV      -0.075400
     24 CA          -4.8120    -1.2510    -1.1090 c5         1 DGV       0.129500
     25 N           -6.0560    -0.6530    -0.6610 n3         1 DGV      -0.761600
     26 CAG         -6.0010     0.3490     0.3690 c3         1 DGV       0.240100
     27 CAF         -7.2100     1.2520     0.3430 ca         1 DGV      -0.088300
     28 CAE         -7.7040     1.7460    -0.8630 ca         1 DGV      -0.098500
     29 CAD         -8.8000     2.5960    -0.8840 ca         1 DGV      -0.115500
     30 CAA         -9.4230     2.9660     0.3030 ca         1 DGV      -0.110000
     31 CAB         -8.9400     2.4770     1.5090 ca         1 DGV      -0.115500
     32 CAC         -7.8420     1.6240     1.5250 ca         1 DGV      -0.098500
     33 H1           7.6670     3.0620    -1.7880 ha         1 DGV       0.133000
     34 H2           9.7590     1.8310    -1.3110 ha         1 DGV       0.124000
     35 H3           9.6590    -0.3030    -0.0630 ha         1 DGV       0.133000
     36 H4           5.2480    -1.1120     0.8760 hc         1 DGV       0.060700
     37 H5           3.7030     0.3300    -1.2940 hc         1 DGV       0.055200
     38 H6           4.4980    -1.2330    -1.4250 hc         1 DGV       0.055200
     39 H7           2.0920    -1.4400    -0.9260 h1         1 DGV       0.031700
     40 H8           3.0800    -2.1700     0.3380 h1         1 DGV       0.031700
     41 H9           4.9760     0.8250     2.3080 hc         1 DGV       0.055200
     42 H10          4.0180     1.6500     1.0870 hc         1 DGV       0.055200
     43 H11          3.3570    -0.9850     2.4730 h1         1 DGV       0.031700
     44 H12          2.5380     0.5640     2.6820 h1         1 DGV       0.031700
     45 H14          0.9990    -1.9380     1.6520 h1         1 DGV       0.033200
     46 H15          0.5890    -0.3230     2.2100 h1         1 DGV       0.033200
     47 H16         -0.3350     0.2660     0.0040 hc         1 DGV       0.051700
     48 H17          0.0310    -1.3390    -0.6140 hc         1 DGV       0.051700
     49 H18         -1.4530    -2.3700     1.0790 h1         1 DGV       0.050200
     50 H19         -1.7980    -0.7920     1.7660 h1         1 DGV       0.050200
     51 H20         -2.3880    -0.5700    -0.9570 hn         1 DGV       0.313500
     52 H22         -6.9830    -2.2590     0.3970 h1         1 DGV       0.048200
     53 H23         -7.1930    -3.5560    -1.6550 hc         1 DGV       0.050200
     54 H24         -7.2090    -2.0940    -2.6400 hc         1 DGV       0.050200
     55 H25         -4.8510    -3.4280    -1.3040 hc         1 DGV       0.052700
     56 H26         -4.8790    -2.5910    -2.8440 hc         1 DGV       0.052700
     57 H27         -4.3170    -0.5700    -1.8110 h1         1 DGV       0.058700
     58 H29         -5.8950    -0.0750     1.3780 h1         1 DGV       0.043700
     59 H30         -5.1070     0.9620     0.2030 h1         1 DGV       0.043700
     60 H31         -7.2300     1.4490    -1.7900 ha         1 DGV       0.117000
     61 H32         -9.1730     2.9690    -1.8300 ha         1 DGV       0.110500
     62 H33        -10.2800     3.6260     0.2860 ha         1 DGV       0.110000
     63 H34         -9.4220     2.7500     2.4390 ha         1 DGV       0.110500
     64 H35         -7.4760     1.2400     2.4700 ha         1 DGV       0.117000
     65 H21         -8.0660    -1.2430    -0.5590 h1         1 DGV       0.048200
@<TRIPOS>BOND
     1     1     2 1   
     2     2     3 ar  
     3     2     8 ar  
     4     3     4 ar  
     5     3    33 1   
     6     4     5 ar  
     7     4    34 1   
     8     5     6 ar  
     9     5    35 1   
    10     6     7 1   
    11     6     8 ar  
    12     8     9 1   
    13     9    10 1   
    14     9    12 1   
    15     9    36 1   
    16    10    11 1   
    17    10    37 1   
    18    10    38 1   
    19    11    14 1   
    20    11    39 1   
    21    11    40 1   
    22    12    13 1   
    23    12    41 1   
    24    12    42 1   
    25    13    14 1   
    26    13    43 1   
    27    13    44 1   
    28    14    15 1   
    29    15    16 1   
    30    15    45 1   
    31    15    46 1   
    32    16    17 1   
    33    16    47 1   
    34    16    48 1   
    35    17    18 1   
    36    17    49 1   
    37    17    50 1   
    38    18    19 1   
    39    18    51 1   
    40    19    20 2   
    41    19    24 1   
    42    21    22 1   
    43    21    25 1   
    44    21    52 1   
    45    21    65 1   
    46    22    23 1   
    47    22    53 1   
    48    22    54 1   
    49    23    24 1   
    50    23    55 1   
    51    23    56 1   
    52    24    25 1   
    53    24    57 1   
    54    25    26 1   
    55    26    27 1   
    56    26    58 1   
    57    26    59 1   
    58    27    28 ar  
    59    27    32 ar  
    60    28    29 ar  
    61    28    60 1   
    62    29    30 ar  
    63    29    61 1   
    64    30    31 ar  
    65    30    62 1   
    66    31    32 ar  
    67    31    63 1   
    68    32    64 1   
@<TRIPOS>SUBSTRUCTURE
     1 DGV         1 TEMP              0 ****  ****    0 ROOT
