@<TRIPOS>MOLECULE
DGV
   65    68     1     0     0
SMALL
No Charge or Current Charge


@<TRIPOS>ATOM
      1 ClAY         4.6990     3.0920    -0.3340 cl         1 DGV      -0.199500
      2 CBA          6.1720     2.1180    -0.3730 ca         1 DGV       0.127000
      3 CBB          7.3450     2.8100    -0.7190 ca         1 DGV      -0.104000
      4 CBF          8.5760     2.1480    -0.7830 ca         1 DGV      -0.096000
      5 CBE          8.6350     0.7790    -0.5000 ca         1 DGV      -0.104000
      6 CBD          7.4740     0.0680    -0.1530 ca         1 DGV       0.127000
      7 ClBC         7.6940    -1.6550     0.1790 cl         1 DGV      -0.199500
      8 CAZ          6.2070     0.7210    -0.0800 ca         1 DGV      -0.043300
      9 CAX          4.9300    -0.0860     0.3080 c6         1 DGV      -0.020400
     10 CAU          3.8620    -0.1650    -0.8160 c6         1 DGV      -0.067900
     11 CAT          2.6670    -1.0500    -0.3840 c6         1 DGV       0.166800
     12 CAW          4.2730     0.3620     1.6400 c6         1 DGV      -0.067900
     13 CAV          3.0690    -0.5440     1.9920 c6         1 DGV       0.166800
     14 NAS          2.0580    -0.5770     0.8960 n3         1 DGV      -0.719600
     15 CAR          0.8470    -1.3370     1.2960 c3         1 DGV       0.173800
     16 CAQ         -0.3470    -1.2120     0.3250 c3         1 DGV      -0.097400
     17 CAP         -1.6250    -1.8660     0.8800 c3         1 DGV       0.102000
     18 NAO         -2.7470    -1.7360    -0.0490 ns         1 DGV      -0.506900
     19 C           -4.0370    -2.1390     0.2330 c          1 DGV       0.563100
     20 O           -4.3430    -2.6630     1.2990 o          1 DGV      -0.606100
     21 CD          -7.1130    -1.5020    -0.0840 c5         1 DGV       0.183800
     22 CG          -7.2760    -2.7380    -0.9970 c5         1 DGV      -0.079400
     23 CB          -5.8060    -3.1100    -1.3690 c5         1 DGV      -0.075400
     24 CA          -4.9730    -1.8320    -1.0080 c5         1 DGV       0.129500
     25 N           -6.0360    -0.7910    -0.8060 n3         1 DGV      -0.761600
     26 CAG         -5.5860     0.4900    -0.2120 c3         1 DGV       0.240100
     27 CAF         -6.6970     1.5340    -0.1410 ca         1 DGV      -0.088300
     28 CAE         -7.1620     2.1540    -1.3170 ca         1 DGV      -0.098500
     29 CAD         -8.1850     3.1170    -1.2560 ca         1 DGV      -0.115500
     30 CAA         -8.7500     3.4650    -0.0180 ca         1 DGV      -0.110000
     31 CAB         -8.2910     2.8500     1.1590 ca         1 DGV      -0.115500
     32 CAC         -7.2680     1.8880     1.0990 ca         1 DGV      -0.098500
     33 H1           7.2970     3.8740    -0.9380 ha         1 DGV       0.133000
     34 H2           9.4790     2.6930    -1.0520 ha         1 DGV       0.124000
     35 H3           9.5900     0.2610    -0.5500 ha         1 DGV       0.133000
     36 H4           5.2130    -1.1290     0.4840 hc         1 DGV       0.060700
     37 H5           3.4810     0.8260    -1.0810 hc         1 DGV       0.055200
     38 H6           4.3110    -0.5790    -1.7280 hc         1 DGV       0.055200
     39 H7           1.9290    -1.0340    -1.1980 h1         1 DGV       0.031700
     40 H8           3.0080    -2.0910    -0.2790 h1         1 DGV       0.031700
     41 H9           5.0110     0.3200     2.4520 hc         1 DGV       0.055200
     42 H10          3.9250     1.3990     1.5920 hc         1 DGV       0.055200
     43 H11          3.4340    -1.5610     2.2010 h1         1 DGV       0.031700
     44 H12          2.6120    -0.1700     2.9200 h1         1 DGV       0.031700
     45 H14          1.0940    -2.4010     1.4170 h1         1 DGV       0.033200
     46 H15          0.5090    -0.9760     2.2780 h1         1 DGV       0.033200
     47 H16         -0.5410    -0.1500     0.1310 hc         1 DGV       0.051700
     48 H17         -0.1010    -1.6830    -0.6330 hc         1 DGV       0.051700
     49 H18         -1.4420    -2.9330     1.0660 h1         1 DGV       0.050200
     50 H19         -1.8970    -1.3920     1.8330 h1         1 DGV       0.050200
     51 H20         -2.5810    -1.3090    -0.9530 hn         1 DGV       0.313500
     52 H22         -6.8150    -1.7820     0.9370 h1         1 DGV       0.048200
     53 H23         -7.8050    -3.5570    -0.4960 hc         1 DGV       0.050200
     54 H24         -7.8520    -2.4810    -1.8940 hc         1 DGV       0.050200
     55 H25         -5.4610    -3.9950    -0.8210 hc         1 DGV       0.052700
     56 H26         -5.7220    -3.3520    -2.4340 hc         1 DGV       0.052700
     57 H27         -4.3290    -1.5560    -1.8550 h1         1 DGV       0.058700
     58 H29         -5.1900     0.3210     0.7990 h1         1 DGV       0.043700
     59 H30         -4.7640     0.9060    -0.8100 h1         1 DGV       0.043700
     60 H31         -6.7320     1.8840    -2.2790 ha         1 DGV       0.117000
     61 H32         -8.5400     3.5910    -2.1690 ha         1 DGV       0.110500
     62 H33         -9.5410     4.2100     0.0300 ha         1 DGV       0.110000
     63 H34         -8.7280     3.1190     2.1190 ha         1 DGV       0.110500
     64 H35         -6.9210     1.4150     2.0150 ha         1 DGV       0.117000
     65 H21         -8.0400    -0.9160    -0.0200 h1         1 DGV       0.048200
@<TRIPOS>BOND
     1     1     2 1   
     2     2     3 ar  
     3     2     8 ar  
     4     3     4 ar  
     5     3    33 1   
     6     4     5 ar  
     7     4    34 1   
     8     5     6 ar  
     9     5    35 1   
    10     6     7 1   
    11     6     8 ar  
    12     8     9 1   
    13     9    10 1   
    14     9    12 1   
    15     9    36 1   
    16    10    11 1   
    17    10    37 1   
    18    10    38 1   
    19    11    14 1   
    20    11    39 1   
    21    11    40 1   
    22    12    13 1   
    23    12    41 1   
    24    12    42 1   
    25    13    14 1   
    26    13    43 1   
    27    13    44 1   
    28    14    15 1   
    29    15    16 1   
    30    15    45 1   
    31    15    46 1   
    32    16    17 1   
    33    16    47 1   
    34    16    48 1   
    35    17    18 1   
    36    17    49 1   
    37    17    50 1   
    38    18    19 1   
    39    18    51 1   
    40    19    20 2   
    41    19    24 1   
    42    21    22 1   
    43    21    25 1   
    44    21    52 1   
    45    21    65 1   
    46    22    23 1   
    47    22    53 1   
    48    22    54 1   
    49    23    24 1   
    50    23    55 1   
    51    23    56 1   
    52    24    25 1   
    53    24    57 1   
    54    25    26 1   
    55    26    27 1   
    56    26    58 1   
    57    26    59 1   
    58    27    28 ar  
    59    27    32 ar  
    60    28    29 ar  
    61    28    60 1   
    62    29    30 ar  
    63    29    61 1   
    64    30    31 ar  
    65    30    62 1   
    66    31    32 ar  
    67    31    63 1   
    68    32    64 1   
@<TRIPOS>SUBSTRUCTURE
     1 DGV         1 TEMP              0 ****  ****    0 ROOT
