@<TRIPOS>MOLECULE
DGW
   57    60     1     0     0
SMALL
No Charge or Current Charge


@<TRIPOS>ATOM
      1 ClAC         3.2810     2.7220    -0.3200 cl         1 DGW      -0.199500
      2 CAT          4.6620     1.6520    -0.0540 ca         1 DGW       0.127000
      3 CAH          5.9010     2.2940     0.1070 ca         1 DGW      -0.104500
      4 CAE          7.0690     1.5550     0.3240 ca         1 DGW      -0.097000
      5 CAI          6.9980     0.1590     0.3790 ca         1 DGW      -0.104500
      6 CAU          5.7690    -0.5030     0.2200 ca         1 DGW       0.127000
      7 ClAD         5.8250    -2.2690     0.3130 cl         1 DGW      -0.199500
      8 CAX          4.5640     0.2280    -0.0020 ca         1 DGW      -0.042300
      9 CBA          3.2100    -0.5250    -0.1760 c6         1 DGW      -0.020400
     10 CAM          2.1700    -0.2310     0.9390 c6         1 DGW      -0.068400
     11 CAO          0.8880    -1.0760     0.7390 c6         1 DGW       0.170800
     12 CAN          2.5600    -0.3510    -1.5750 c6         1 DGW      -0.068400
     13 CAP          1.2680    -1.1950    -1.6900 c6         1 DGW       0.170800
     14 NBB          0.2910    -0.8660    -0.6140 n3         1 DGW      -0.728600
     15 CAR         -1.0020    -1.5730    -0.8130 c3         1 DGW       0.174800
     16 CAZ         -2.1810    -1.1240     0.1010 c3         1 DGW      -0.055700
     17 CAQ         -3.4340    -1.9940    -0.1960 c3         1 DGW      -0.071400
     18 CAY         -4.6400    -1.7490     0.7420 c3         1 DGW       0.222600
     19 OAB         -5.4260    -2.9450     0.8050 oh         1 DGW      -0.662000
     20 CAV         -5.4790    -0.5320     0.3010 ca         1 DGW      -0.116300
     21 CAJ         -6.7780    -0.7030    -0.2360 ca         1 DGW      -0.106000
     22 CAF         -7.5360     0.4000    -0.6450 ca         1 DGW      -0.112000
     23 CAG         -7.0100     1.6910    -0.5370 ca         1 DGW      -0.108000
     24 CAS         -5.7160     1.8950    -0.0230 ca         1 DGW      -0.072300
     25 CAA         -5.1920     3.3290     0.0390 c3         1 DGW      -0.046800
     26 CAW         -4.9400     0.7800     0.4040 ca         1 DGW      -0.060300
     27 CAK         -3.5150     0.9680     0.9460 c3         1 DGW      -0.036100
     28 CAL         -2.4360     0.4070    -0.0080 c3         1 DGW      -0.067400
     29 H1           5.9550     3.3800     0.0640 ha         1 DGW       0.133000
     30 H2           8.0240     2.0610     0.4480 ha         1 DGW       0.124000
     31 H3           7.9030    -0.4190     0.5480 ha         1 DGW       0.133000
     32 H4           3.3920    -1.6020    -0.0960 hc         1 DGW       0.060700
     33 H5           2.6050    -0.4550     1.9220 hc         1 DGW       0.054450
     34 H6           1.8880     0.8260     0.9590 hc         1 DGW       0.054450
     35 H7           1.1290    -2.1390     0.8860 h1         1 DGW       0.030950
     36 H8           0.1780    -0.7940     1.5290 h1         1 DGW       0.030950
     37 H9           2.3100     0.6960    -1.7770 hc         1 DGW       0.054450
     38 H10          3.2680    -0.6580    -2.3560 hc         1 DGW       0.054450
     39 H11          0.8210    -1.0120    -2.6780 h1         1 DGW       0.030950
     40 H12          1.5310    -2.2630    -1.6490 h1         1 DGW       0.030950
     41 H14         -1.3270    -1.4330    -1.8530 h1         1 DGW       0.032700
     42 H15         -0.8470    -2.6520    -0.6760 h1         1 DGW       0.032700
     43 H16         -1.8980    -1.3380     1.1380 hc         1 DGW       0.041700
     44 H17         -3.7500    -1.8510    -1.2370 hc         1 DGW       0.055200
     45 H18         -3.1350    -3.0460    -0.1070 hc         1 DGW       0.055200
     46 H19         -4.2510    -1.5550     1.7500 h1         1 DGW       0.034700
     47 H20         -6.1380    -2.7730     1.4580 ho         1 DGW       0.446000
     48 H21         -7.2140    -1.6920    -0.3540 ha         1 DGW       0.119000
     49 H22         -8.5340     0.2520    -1.0540 ha         1 DGW       0.112000
     50 H23         -7.6110     2.5360    -0.8650 ha         1 DGW       0.110000
     51 H24         -5.0090     3.6380     1.0750 hc         1 DGW       0.041033
     52 H25         -4.2560     3.4340    -0.5210 hc         1 DGW       0.041033
     53 H26         -5.9040     4.0450    -0.3890 hc         1 DGW       0.041033
     54 H27         -3.2820     2.0220     1.1240 hc         1 DGW       0.045700
     55 H28         -3.4110     0.5040     1.9340 hc         1 DGW       0.045700
     56 H29         -1.4990     0.9320     0.2170 hc         1 DGW       0.054200
     57 H30         -2.6910     0.6700    -1.0420 hc         1 DGW       0.054200
@<TRIPOS>BOND
     1     1     2 1   
     2     2     3 ar  
     3     2     8 ar  
     4     3     4 ar  
     5     3    29 1   
     6     4     5 ar  
     7     4    30 1   
     8     5     6 ar  
     9     5    31 1   
    10     6     7 1   
    11     6     8 ar  
    12     8     9 1   
    13     9    10 1   
    14     9    12 1   
    15     9    32 1   
    16    10    11 1   
    17    10    33 1   
    18    10    34 1   
    19    11    14 1   
    20    11    35 1   
    21    11    36 1   
    22    12    13 1   
    23    12    37 1   
    24    12    38 1   
    25    13    14 1   
    26    13    39 1   
    27    13    40 1   
    28    14    15 1   
    29    15    16 1   
    30    15    41 1   
    31    15    42 1   
    32    16    17 1   
    33    16    28 1   
    34    16    43 1   
    35    17    18 1   
    36    17    44 1   
    37    17    45 1   
    38    18    19 1   
    39    18    20 1   
    40    18    46 1   
    41    19    47 1   
    42    20    21 ar  
    43    20    26 ar  
    44    21    22 ar  
    45    21    48 1   
    46    22    23 ar  
    47    22    49 1   
    48    23    24 ar  
    49    23    50 1   
    50    24    25 1   
    51    24    26 ar  
    52    25    51 1   
    53    25    52 1   
    54    25    53 1   
    55    26    27 1   
    56    27    28 1   
    57    27    54 1   
    58    27    55 1   
    59    28    56 1   
    60    28    57 1   
@<TRIPOS>SUBSTRUCTURE
     1 DGW         1 TEMP              0 ****  ****    0 ROOT
