@<TRIPOS>MOLECULE
DGW
   57    60     1     0     0
SMALL
abcg2


@<TRIPOS>ATOM
      1 CLAC         3.0240     2.6350     0.0770 cl         1 DGW      -0.199500
      2 CAT          4.4500     1.6420     0.1290 ca         1 DGW       0.127000
      3 CAH          5.6440     2.3280     0.3010 ca         1 DGW      -0.104500
      4 CAE          6.8350     1.6280     0.3460 ca         1 DGW      -0.097000
      5 CAI          6.8240     0.2520     0.2150 ca         1 DGW      -0.104500
      6 CAU          5.6150    -0.4060     0.0440 ca         1 DGW       0.127000
      7 CLAD         5.7170    -2.1360    -0.1190 cl         1 DGW      -0.199500
      8 CAX          4.3760     0.2490    -0.0030 ca         1 DGW      -0.042300
      9 CBA          3.0900    -0.5230    -0.1930 c6         1 DGW      -0.020400
     10 CAM          2.1080    -0.4240     0.9770 c6         1 DGW      -0.068400
     11 CAO          0.8960    -1.3040     0.7100 c6         1 DGW       0.170800
     12 CAN          2.3810    -0.2350    -1.5190 c6         1 DGW      -0.068400
     13 CAP          1.1600    -1.1320    -1.6570 c6         1 DGW       0.170800
     14 NBB          0.2520    -0.9520    -0.5410 n3         1 DGW      -0.728600
     15 CAR         -1.0060    -1.6460    -0.7330 c3         1 DGW       0.174800
     16 CAZ         -2.1390    -1.1280     0.1570 c3         1 DGW      -0.055700
     17 CAQ         -3.3850    -1.9790    -0.0880 c3         1 DGW      -0.071400
     18 CAY         -4.5610    -1.6540     0.8360 c3         1 DGW       0.222600
     19 OAB         -5.3400    -2.8230     0.9510 oh         1 DGW      -0.662000
     20 CAV         -5.3620    -0.4720     0.3270 ca         1 DGW      -0.116300
     21 CAJ         -6.6350    -0.6620    -0.2020 ca         1 DGW      -0.106000
     22 CAF         -7.3620     0.4140    -0.6850 ca         1 DGW      -0.112000
     23 CAG         -6.8150     1.6860    -0.6470 ca         1 DGW      -0.108000
     24 CAS         -5.5380     1.9010    -0.1340 ca         1 DGW      -0.072300
     25 CAA         -4.9810     3.2990    -0.1390 c3         1 DGW      -0.046800
     26 CAW         -4.8040     0.8130     0.3610 ca         1 DGW      -0.060300
     27 CAK         -3.4010     1.0010     0.8730 c3         1 DGW      -0.036100
     28 CAL         -2.3350     0.3720    -0.0330 c3         1 DGW      -0.067400
     29 H1           5.6380     3.4040     0.3980 ha         1 DGW       0.133000
     30 H2           7.7700     2.1540     0.4820 ha         1 DGW       0.124000
     31 H3           7.7470    -0.3100     0.2440 ha         1 DGW       0.133000
     32 H4           3.3670    -1.5790    -0.2390 hc         1 DGW       0.060700
     33 H5           2.5920    -0.7550     1.8990 hc         1 DGW       0.054450
     34 H6           1.7690     0.5980     1.1360 hc         1 DGW       0.054450
     35 H7           1.2000    -2.3680     0.7140 h1         1 DGW       0.030950
     36 H8           0.1890    -1.1830     1.5320 h1         1 DGW       0.030950
     37 H9           2.0650     0.8060    -1.5840 hc         1 DGW       0.054450
     38 H10          3.0630    -0.4200    -2.3520 hc         1 DGW       0.054450
     39 H11          0.6350    -0.8830    -2.5820 h1         1 DGW       0.030950
     40 H12          1.4900    -2.1830    -1.7530 h1         1 DGW       0.030950
     41 H14         -1.3070    -1.5120    -1.7780 h1         1 DGW       0.032700
     42 H15         -0.8940    -2.7340    -0.5810 h1         1 DGW       0.032700
     43 H16         -1.8610    -1.2880     1.2060 hc         1 DGW       0.041700
     44 H17         -3.7040    -1.9030    -1.1330 hc         1 DGW       0.055200
     45 H18         -3.1110    -3.0250     0.0840 hc         1 DGW       0.055200
     46 H19         -4.1510    -1.3910     1.8240 h1         1 DGW       0.034700
     47 H20         -6.0440    -2.6590     1.5880 ho         1 DGW       0.446000
     48 H21         -7.0660    -1.6530    -0.2470 ha         1 DGW       0.119000
     49 H22         -8.3520     0.2590    -1.0950 ha         1 DGW       0.112000
     50 H23         -7.3830     2.5270    -1.0280 ha         1 DGW       0.110000
     51 H24         -4.7570     3.6590     0.8680 hc         1 DGW       0.041033
     52 H25         -4.0560     3.3670    -0.7140 hc         1 DGW       0.041033
     53 H26         -5.6920     3.9950    -0.5810 hc         1 DGW       0.041033
     54 H27         -3.1830     2.0620     0.9780 hc         1 DGW       0.045700
     55 H28         -3.3030     0.5870     1.8830 hc         1 DGW       0.045700
     56 H29         -1.3760     0.8540     0.1660 hc         1 DGW       0.054200
     57 H30         -2.5740     0.5870    -1.0810 hc         1 DGW       0.054200
@<TRIPOS>BOND
     1     1     2 1   
     2     2     3 ar  
     3     2     8 ar  
     4     3     4 ar  
     5     3    29 1   
     6     4     5 ar  
     7     4    30 1   
     8     5     6 ar  
     9     5    31 1   
    10     6     7 1   
    11     6     8 ar  
    12     8     9 1   
    13     9    10 1   
    14     9    12 1   
    15     9    32 1   
    16    10    11 1   
    17    10    33 1   
    18    10    34 1   
    19    11    14 1   
    20    11    35 1   
    21    11    36 1   
    22    12    13 1   
    23    12    37 1   
    24    12    38 1   
    25    13    14 1   
    26    13    39 1   
    27    13    40 1   
    28    14    15 1   
    29    15    16 1   
    30    15    41 1   
    31    15    42 1   
    32    16    17 1   
    33    16    28 1   
    34    16    43 1   
    35    17    18 1   
    36    17    44 1   
    37    17    45 1   
    38    18    19 1   
    39    18    20 1   
    40    18    46 1   
    41    19    47 1   
    42    20    21 ar  
    43    20    26 ar  
    44    21    22 ar  
    45    21    48 1   
    46    22    23 ar  
    47    22    49 1   
    48    23    24 ar  
    49    23    50 1   
    50    24    25 1   
    51    24    26 ar  
    52    25    51 1   
    53    25    52 1   
    54    25    53 1   
    55    26    27 1   
    56    27    28 1   
    57    27    54 1   
    58    27    55 1   
    59    28    56 1   
    60    28    57 1   
@<TRIPOS>SUBSTRUCTURE
     1 DGW         1 TEMP              0 ****  ****    0 ROOT
