@<TRIPOS>MOLECULE
DGX
  119   126     1     0     0
SMALL
No Charge or Current Charge


@<TRIPOS>ATOM
      1 C1           3.0400    -0.7860    -0.6120 c6         1 DGX      -0.067400
      2 C2           2.5160    -0.1420     0.6970 c6         1 DGX      -0.092400
      3 C3           2.0650     1.3240     0.4590 c6         1 DGX       0.183300
      4 O3           0.9160     1.4260    -0.4160 os         1 DGX      -0.454000
      5 C4           3.2370     2.1320    -0.1470 c6         1 DGX      -0.073400
      6 C5           3.7960     1.4860    -1.4610 c6         1 DGX      -0.047700
      7 C6           4.9410     2.3490    -2.0580 c6         1 DGX      -0.071400
      8 C7           6.2260     2.2980    -1.2010 c6         1 DGX      -0.072400
      9 C8           6.7230     0.8350    -0.9530 c6         1 DGX      -0.075700
     10 C9           5.5640    -0.0590    -0.3670 c6         1 DGX      -0.037700
     11 C10          4.2450    -0.0130    -1.2630 c6         1 DGX      -0.029000
     12 C11          6.0810    -1.5090    -0.1030 c6         1 DGX      -0.110400
     13 C12          7.3130    -1.5260     0.8330 c6         1 DGX       0.172300
     14 O12          7.6940    -2.8870     1.0870 oh         1 DGX      -0.657000
     15 C13          8.5190    -0.6670     0.2790 c5         1 DGX      -0.010000
     16 C14          8.0340     0.8020    -0.0750 c5         1 DGX       0.188000
     17 O14          9.0320     1.5230    -0.8040 oh         1 DGX      -0.666000
     18 C15          7.8990     1.4220     1.3540 c5         1 DGX      -0.112400
     19 C16          9.2430     1.0240     2.0240 c5         1 DGX      -0.071400
     20 C17          9.5580    -0.4080     1.4600 c5         1 DGX      -0.010500
     21 C18          9.1310    -1.4150    -0.9610 c3         1 DGX      -0.070100
     22 C19          4.4830    -0.6800    -2.6660 c3         1 DGX      -0.086100
     23 C1X         -0.3340     0.9740     0.1280 c6         1 DGX       0.405300
     24 C1Y         -5.4120    -0.4060     0.1330 c6         1 DGX       0.399300
     25 C1Z        -10.6010     0.4160     0.4280 c6         1 DGX       0.402300
     26 C20         11.0340    -0.5530     1.0440 c2         1 DGX      -0.071400
     27 C21         11.8480     0.4870     0.2910 c5         1 DGX       0.173800
     28 O21         13.1530    -0.1640     0.1420 os         1 DGX      -0.429100
     29 C22         11.7930    -1.6220     1.2700 ce         1 DGX      -0.318200
     30 C23         13.1290    -1.4130     0.7170 c          1 DGX       0.649300
     31 O23         14.0640    -2.1970     0.7520 o          1 DGX      -0.492000
     32 C2X         -1.4890     1.7610    -0.5150 c6         1 DGX      -0.145400
     33 C2Y         -6.4750    -1.4470     0.5180 c6         1 DGX      -0.143400
     34 C2Z        -11.7660     1.4210     0.3400 c6         1 DGX      -0.144400
     35 C3X         -2.8610     1.2380    -0.0270 c6         1 DGX       0.155300
     36 O3X         -3.1170     1.6730     1.3150 oh         1 DGX      -0.707000
     37 C3Y         -7.8980    -0.9480     0.1710 c6         1 DGX       0.154300
     38 O3Y         -8.1240    -1.0180    -1.2430 oh         1 DGX      -0.707000
     39 C3Z        -13.1270     0.7040     0.4990 c6         1 DGX       0.174300
     40 O3Z        -13.2920     0.2540     1.8490 oh         1 DGX      -0.645000
     41 C4X         -2.9750    -0.3230    -0.1460 c6         1 DGX       0.153300
     42 O4X         -4.1230    -0.8480     0.5760 os         1 DGX      -0.427000
     43 C4Y         -8.1640     0.5000     0.7140 c6         1 DGX       0.154300
     44 O4Y         -9.3670     1.0880     0.1470 os         1 DGX      -0.430000
     45 C4Z        -13.2430    -0.5040    -0.4850 c6         1 DGX       0.147300
     46 O4Z        -14.4490    -1.2500    -0.2050 oh         1 DGX      -0.696000
     47 C5X         -1.6810    -1.0000     0.4040 c6         1 DGX       0.177300
     48 O5X         -0.5020    -0.4170    -0.1880 os         1 DGX      -0.498000
     49 C5Y         -6.9510     1.4260     0.3920 c6         1 DGX       0.178300
     50 O5Y         -5.7120     0.8220     0.8170 os         1 DGX      -0.497000
     51 C5Z        -11.9660    -1.4020    -0.3840 c6         1 DGX       0.152300
     52 O5Z        -10.7830    -0.5980    -0.5780 os         1 DGX      -0.494000
     53 C6X         -1.6250    -2.5190     0.1050 c3         1 DGX      -0.087100
     54 C6Y         -7.0380     2.8000     1.1010 c3         1 DGX      -0.087100
     55 C6Z        -11.9160    -2.5170    -1.4570 c3         1 DGX      -0.093100
     56 H1           3.2890    -1.8380    -0.4320 hc         1 DGX       0.047700
     57 H1A          2.2060    -0.8200    -1.3280 hc         1 DGX       0.047700
     58 H2           1.6920    -0.7390     1.1070 hc         1 DGX       0.049700
     59 H2A          3.2950    -0.1670     1.4710 hc         1 DGX       0.049700
     60 H3           1.7990     1.7780     1.4250 h1         1 DGX       0.036700
     61 H4           2.8940     3.1550    -0.3550 hc         1 DGX       0.044700
     62 H4A          4.0210     2.2330     0.6120 hc         1 DGX       0.044700
     63 H5           2.9740     1.4990    -2.1910 hc         1 DGX       0.063700
     64 H6           5.1690     2.0230    -3.0810 hc         1 DGX       0.042200
     65 H6A          4.6080     3.3920    -2.1540 hc         1 DGX       0.042200
     66 H7           6.9990     2.8840    -1.7140 hc         1 DGX       0.035200
     67 H7A          6.0480     2.8090    -0.2460 hc         1 DGX       0.035200
     68 H8           7.0030     0.4220    -1.9300 hc         1 DGX       0.068700
     69 H9           5.3110     0.3570     0.6140 hc         1 DGX       0.042700
     70 H11          5.2950    -2.1040     0.3760 hc         1 DGX       0.052200
     71 H11A         6.3170    -2.0190    -1.0440 hc         1 DGX       0.052200
     72 H12          6.9860    -1.0930     1.7880 h1         1 DGX       0.025700
     73 HO12         6.9110    -3.3330     1.4750 ho         1 DGX       0.443000
     74 HO14         8.6750     2.4240    -0.9440 ho         1 DGX       0.442000
     75 H15          7.7810     2.5110     1.3280 hc         1 DGX       0.050200
     76 H15A         7.0430     1.0400     1.9180 hc         1 DGX       0.050200
     77 H16         10.0150     1.7590     1.7820 hc         1 DGX       0.047700
     78 H16A         9.1630     1.0210     3.1170 hc         1 DGX       0.047700
     79 H17          9.3810    -1.1360     2.2600 hc         1 DGX       0.071700
     80 H18          8.3920    -1.5850    -1.7500 hc         1 DGX       0.044700
     81 H18A         9.9450    -0.8510    -1.4270 hc         1 DGX       0.044700
     82 H18B         9.5460    -2.3910    -0.6830 hc         1 DGX       0.044700
     83 H19          3.6100    -0.5510    -3.3170 hc         1 DGX       0.035367
     84 H19A         5.3400    -0.2660    -3.2050 hc         1 DGX       0.035367
     85 H19B         4.6470    -1.7610    -2.5800 hc         1 DGX       0.035367
     86 H1X         -0.3470     1.1220     1.2190 h2         1 DGX       0.027700
     87 H1Y         -5.4090    -0.2520    -0.9560 h2         1 DGX       0.029700
     88 H1Z        -10.5680    -0.0370     1.4300 h2         1 DGX       0.029700
     89 H21         11.4450     0.7170    -0.7030 h1         1 DGX       0.084700
     90 H21A        11.9770     1.4230     0.8500 h1         1 DGX       0.084700
     91 H22         11.5110    -2.5430     1.7750 ha         1 DGX       0.223000
     92 H2X         -1.3870     2.8290    -0.2880 hc         1 DGX       0.065700
     93 H2XA        -1.4270     1.6630    -1.6070 hc         1 DGX       0.065700
     94 H2YA        -6.4100    -1.6470     1.5960 hc         1 DGX       0.067200
     95 H2ZA       -11.7300     1.9340    -0.6300 hc         1 DGX       0.068700
     96 H3X         -3.6230     1.6770    -0.6900 h1         1 DGX       0.058700
     97 HO3X        -4.0450     1.3630     1.4850 ho         1 DGX       0.498000
     98 H3Y         -8.6050    -1.6260     0.6740 h1         1 DGX       0.058700
     99 HO3Y        -9.0810    -0.7700    -1.3370 ho         1 DGX       0.499000
    100 H3Z        -13.9250     1.4220     0.2550 h1         1 DGX       0.048700
    101 HO3Z       -13.9850    -0.4430     1.7850 ho         1 DGX       0.440000
    102 H4X         -3.0780    -0.5880    -1.2080 h1         1 DGX       0.057700
    103 H4Y         -8.2790     0.4500     1.8070 h1         1 DGX       0.057700
    104 H4Z        -13.2900    -0.0950    -1.5060 h1         1 DGX       0.042700
    105 HO4Z       -14.6590    -1.7750    -1.0120 ho         1 DGX       0.501000
    106 H5X         -1.6330    -0.8600     1.4940 h1         1 DGX       0.059700
    107 H5Y         -6.9040     1.5990    -0.6940 h1         1 DGX       0.060700
    108 H5Z        -11.9170    -1.8710     0.6100 h1         1 DGX       0.061700
    109 H6X         -1.6740    -2.7150    -0.9730 hc         1 DGX       0.044367
    110 H6XA        -0.6960    -2.9590     0.4870 hc         1 DGX       0.044367
    111 H6XB        -2.4600    -3.0470     0.5800 hc         1 DGX       0.044367
    112 H6Y         -7.0880     2.6830     2.1900 hc         1 DGX       0.045033
    113 H6YA        -6.1640     3.4180     0.8670 hc         1 DGX       0.045033
    114 H6YB        -7.9290     3.3530     0.7810 hc         1 DGX       0.045033
    115 H6Z        -11.9800    -2.1000    -2.4690 hc         1 DGX       0.045033
    116 H6ZA       -10.9800    -3.0850    -1.3870 hc         1 DGX       0.045033
    117 H6ZB       -12.7400    -3.2290    -1.3320 hc         1 DGX       0.045033
    118 H2Y         -6.2700    -2.3980     0.0090 hc         1 DGX       0.067200
    119 H2Z        -11.6520     2.1930     1.1110 hc         1 DGX       0.068700
@<TRIPOS>BOND
     1     1     2 1   
     2     1    11 1   
     3     1    56 1   
     4     1    57 1   
     5     2     3 1   
     6     2    58 1   
     7     2    59 1   
     8     3     4 1   
     9     3     5 1   
    10     3    60 1   
    11     4    23 1   
    12     5     6 1   
    13     5    61 1   
    14     5    62 1   
    15     6     7 1   
    16     6    11 1   
    17     6    63 1   
    18     7     8 1   
    19     7    64 1   
    20     7    65 1   
    21     8     9 1   
    22     8    66 1   
    23     8    67 1   
    24     9    10 1   
    25     9    16 1   
    26     9    68 1   
    27    10    11 1   
    28    10    12 1   
    29    10    69 1   
    30    11    22 1   
    31    12    13 1   
    32    12    70 1   
    33    12    71 1   
    34    13    14 1   
    35    13    15 1   
    36    13    72 1   
    37    14    73 1   
    38    15    16 1   
    39    15    20 1   
    40    15    21 1   
    41    16    17 1   
    42    16    18 1   
    43    17    74 1   
    44    18    19 1   
    45    18    75 1   
    46    18    76 1   
    47    19    20 1   
    48    19    77 1   
    49    19    78 1   
    50    20    26 1   
    51    20    79 1   
    52    21    80 1   
    53    21    81 1   
    54    21    82 1   
    55    22    83 1   
    56    22    84 1   
    57    22    85 1   
    58    23    32 1   
    59    23    48 1   
    60    23    86 1   
    61    24    33 1   
    62    24    42 1   
    63    24    50 1   
    64    24    87 1   
    65    25    34 1   
    66    25    44 1   
    67    25    52 1   
    68    25    88 1   
    69    26    27 1   
    70    26    29 2   
    71    27    28 1   
    72    27    89 1   
    73    27    90 1   
    74    28    30 1   
    75    29    30 1   
    76    29    91 1   
    77    30    31 2   
    78    32    35 1   
    79    32    92 1   
    80    32    93 1   
    81    33    37 1   
    82    33    94 1   
    83    33   118 1   
    84    34    39 1   
    85    34    95 1   
    86    34   119 1   
    87    35    36 1   
    88    35    41 1   
    89    35    96 1   
    90    36    97 1   
    91    37    38 1   
    92    37    43 1   
    93    37    98 1   
    94    38    99 1   
    95    39    40 1   
    96    39    45 1   
    97    39   100 1   
    98    40   101 1   
    99    41    42 1   
   100    41    47 1   
   101    41   102 1   
   102    43    44 1   
   103    43    49 1   
   104    43   103 1   
   105    45    46 1   
   106    45    51 1   
   107    45   104 1   
   108    46   105 1   
   109    47    48 1   
   110    47    53 1   
   111    47   106 1   
   112    49    50 1   
   113    49    54 1   
   114    49   107 1   
   115    51    52 1   
   116    51    55 1   
   117    51   108 1   
   118    53   109 1   
   119    53   110 1   
   120    53   111 1   
   121    54   112 1   
   122    54   113 1   
   123    54   114 1   
   124    55   115 1   
   125    55   116 1   
   126    55   117 1   
@<TRIPOS>SUBSTRUCTURE
     1 DGX         1 TEMP              0 ****  ****    0 ROOT
