@<TRIPOS>MOLECULE
DGX
  119   126     1     0     0
SMALL
abcg2


@<TRIPOS>ATOM
      1 C1           2.9590    -0.3990    -0.8630 c6         1 DGX      -0.067400
      2 C2           2.5360    -0.6420     0.5790 c6         1 DGX      -0.092400
      3 C3           2.0720     0.6530     1.2340 c6         1 DGX       0.183300
      4 O3           0.9020     1.1730     0.6020 os         1 DGX      -0.454000
      5 C4           3.1630     1.7060     1.1190 c6         1 DGX      -0.073400
      6 C5           3.6250     1.9520    -0.3220 c6         1 DGX      -0.047700
      7 C6           4.7160     3.0220    -0.3650 c6         1 DGX      -0.071400
      8 C7           6.0350     2.5260     0.2100 c6         1 DGX      -0.072400
      9 C8           6.5100     1.2430    -0.4760 c6         1 DGX      -0.075700
     10 C9           5.4180     0.1610    -0.4290 c6         1 DGX      -0.037700
     11 C10          4.0740     0.6520    -1.0340 c6         1 DGX      -0.029000
     12 C11          5.9300    -1.1290    -1.0630 c6         1 DGX      -0.110400
     13 C12          7.2100    -1.6090    -0.3980 c6         1 DGX       0.172300
     14 O12          7.6630    -2.8220    -0.9650 oh         1 DGX      -0.657000
     15 C13          8.3540    -0.5800    -0.4920 c5         1 DGX      -0.010000
     16 C14          7.8560     0.7640     0.0970 c5         1 DGX       0.188000
     17 O14          8.8690     1.7110    -0.2130 oh         1 DGX      -0.666000
     18 C15          7.8750     0.5150     1.6080 c5         1 DGX      -0.112400
     19 C16          9.1410    -0.3100     1.8490 c5         1 DGX      -0.071400
     20 C17          9.4610    -1.0360     0.5160 c5         1 DGX      -0.010500
     21 C18          8.8380    -0.4720    -1.9380 c3         1 DGX      -0.070100
     22 C19          4.2020     0.9120    -2.5400 c3         1 DGX      -0.086100
     23 C1X         -0.3130     0.8640     1.1700 c6         1 DGX       0.405300
     24 C1Y         -5.2780    -0.6500     0.5550 c6         1 DGX       0.399300
     25 C1Z        -10.2820     0.0800    -0.7740 c6         1 DGX       0.402300
     26 C20         10.8770    -0.8500     0.0830 c2         1 DGX      -0.071400
     27 C21         11.6020     0.4530    -0.0760 c5         1 DGX       0.173800
     28 O21         12.9400     0.0930    -0.4060 os         1 DGX      -0.429100
     29 C22         11.7510    -1.8290    -0.1700 ce         1 DGX      -0.318200
     30 C23         13.0520    -1.2440    -0.4810 c          1 DGX       0.649300
     31 O23         14.0970    -1.7750    -0.7580 o          1 DGX      -0.492000
     32 C2X         -1.3580     1.8330     0.6470 c6         1 DGX      -0.145400
     33 C2Y         -6.3850    -1.4060     1.2650 c6         1 DGX      -0.143400
     34 C2Z        -11.1410     0.2680    -2.0110 c6         1 DGX      -0.144400
     35 C3X         -2.7450     1.4590     1.1620 c6         1 DGX       0.155300
     36 O3X         -2.8440     1.6220     2.5610 oh         1 DGX      -0.707000
     37 C3Y         -7.5940    -1.5560     0.3440 c6         1 DGX       0.154300
     38 O3Y         -7.3050    -2.3730    -0.7700 oh         1 DGX      -0.707000
     39 C3Z        -12.5860     0.5590    -1.6170 c6         1 DGX       0.174300
     40 O3Z        -12.7110     1.8040    -0.9620 oh         1 DGX      -0.645000
     41 C4X         -3.0160    -0.0100     0.8490 c6         1 DGX       0.153300
     42 O4X         -4.2310    -0.4390     1.4310 os         1 DGX      -0.427000
     43 C4Y         -7.9920    -0.1810    -0.1900 c6         1 DGX       0.154300
     44 O4Y         -9.0080    -0.2850    -1.1650 os         1 DGX      -0.430000
     45 C4Z        -13.0700    -0.5230    -0.6610 c6         1 DGX       0.147300
     46 O4Z        -14.3740    -0.2000    -0.2420 oh         1 DGX      -0.696000
     47 C5X         -1.8830    -0.9060     1.3630 c6         1 DGX       0.177300
     48 O5X         -0.6590    -0.4580     0.8090 os         1 DGX      -0.498000
     49 C5Y         -6.7950     0.5380    -0.8230 c6         1 DGX       0.178300
     50 O5Y         -5.7470     0.6080     0.1280 os         1 DGX      -0.497000
     51 C5Z        -12.1070    -0.6760     0.5260 c6         1 DGX       0.152300
     52 O5Z        -10.8040    -0.9480     0.0350 os         1 DGX      -0.494000
     53 C6X         -2.0650    -2.3540     0.9590 c3         1 DGX      -0.087100
     54 C6Y         -7.1260     1.9560    -1.2420 c3         1 DGX      -0.087100
     55 C6Z        -12.4940    -1.8150     1.4450 c3         1 DGX      -0.093100
     56 H1           3.2490    -1.3410    -1.3320 hc         1 DGX       0.047700
     57 H1A          2.0850    -0.0530    -1.4230 hc         1 DGX       0.047700
     58 H2           1.7450    -1.3930     0.6200 hc         1 DGX       0.049700
     59 H2A          3.3680    -1.0430     1.1660 hc         1 DGX       0.049700
     60 H3           1.8560     0.4780     2.2960 h1         1 DGX       0.036700
     61 H4           2.8140     2.6470     1.5540 hc         1 DGX       0.044700
     62 H4A          3.9980     1.3780     1.7460 hc         1 DGX       0.044700
     63 H5           2.7610     2.3360    -0.8770 hc         1 DGX       0.063700
     64 H6           4.8720     3.3560    -1.3950 hc         1 DGX       0.042200
     65 H6A          4.3820     3.9050     0.1870 hc         1 DGX       0.042200
     66 H7           6.7840     3.3170     0.1100 hc         1 DGX       0.035200
     67 H7A          5.9220     2.3460     1.2830 hc         1 DGX       0.035200
     68 H8           6.7020     1.4800    -1.5300 hc         1 DGX       0.068700
     69 H9           5.2320    -0.0620     0.6280 hc         1 DGX       0.042700
     70 H11          5.1820    -1.9200    -0.9650 hc         1 DGX       0.052200
     71 H11A         6.1000    -0.9970    -2.1350 hc         1 DGX       0.052200
     72 H12          6.9840    -1.7720     0.6670 h1         1 DGX       0.025700
     73 HO12         7.0060    -3.4990    -0.7740 ho         1 DGX       0.443000
     74 HO14         8.7670     2.4740     0.3640 ho         1 DGX       0.442000
     75 H15          7.8830     1.4480     2.1780 hc         1 DGX       0.050200
     76 H15A         6.9850    -0.0250     1.9350 hc         1 DGX       0.050200
     77 H16          9.9630     0.3340     2.1600 hc         1 DGX       0.047700
     78 H16A         9.0060    -1.0320     2.6540 hc         1 DGX       0.047700
     79 H17          9.3520    -2.1120     0.6580 hc         1 DGX       0.071700
     80 H18          8.0310    -0.1800    -2.6120 hc         1 DGX       0.044700
     81 H18A         9.6240     0.2680    -2.0570 hc         1 DGX       0.044700
     82 H18B         9.2330    -1.4240    -2.2910 hc         1 DGX       0.044700
     83 H19          3.2610     1.3040    -2.9340 hc         1 DGX       0.035367
     84 H19A         4.9810     1.6310    -2.7930 hc         1 DGX       0.035367
     85 H19B         4.4190    -0.0080    -3.0850 hc         1 DGX       0.035367
     86 H1X         -0.2560     0.9260     2.2710 h2         1 DGX       0.027700
     87 H1Y         -4.9360    -1.2220    -0.3250 h2         1 DGX       0.029700
     88 H1Z        -10.2550     1.0150    -0.1880 h2         1 DGX       0.029700
     89 H21         11.1950     1.0720    -0.8750 h1         1 DGX       0.084700
     90 H21A        11.6050     1.0490     0.8390 h1         1 DGX       0.084700
     91 H22         11.5710    -2.8930    -0.1370 ha         1 DGX       0.223000
     92 H2X         -1.1120     2.8550     0.9470 hc         1 DGX       0.065700
     93 H2XA        -1.3540     1.8100    -0.4470 hc         1 DGX       0.065700
     94 H2YA        -6.6750    -0.8630     2.1690 hc         1 DGX       0.067200
     95 H2ZA       -11.1040    -0.6420    -2.6180 hc         1 DGX       0.068700
     96 H3X         -3.4940     2.0720     0.6470 h1         1 DGX       0.058700
     97 HO3X        -2.6590     2.5440     2.7680 ho         1 DGX       0.498000
     98 H3Y         -8.4330    -1.9660     0.9190 h1         1 DGX       0.058700
     99 HO3Y        -7.0470    -3.2420    -0.4470 ho         1 DGX       0.499000
    100 H3Z        -13.2140     0.5330    -2.5180 h1         1 DGX       0.048700
    101 HO3Z       -12.4030     2.4900    -1.5620 ho         1 DGX       0.440000
    102 H4X         -3.0510    -0.1150    -0.2450 h1         1 DGX       0.057700
    103 H4Y         -8.3310     0.4230     0.6640 h1         1 DGX       0.057700
    104 H4Z        -13.0560    -1.4700    -1.2200 h1         1 DGX       0.042700
    105 HO4Z       -14.7930    -0.9980     0.0930 ho         1 DGX       0.501000
    106 H5X         -1.8440    -0.8420     2.4610 h1         1 DGX       0.059700
    107 H5Y         -6.4610    -0.0280    -1.7060 h1         1 DGX       0.060700
    108 H5Z        -12.1010     0.2620     1.1030 h1         1 DGX       0.061700
    109 H6X         -2.1250    -2.4580    -0.1260 hc         1 DGX       0.044367
    110 H6XA        -1.2290    -2.9590     1.3140 hc         1 DGX       0.044367
    111 H6XB        -2.9760    -2.7650     1.3920 hc         1 DGX       0.044367
    112 H6Y         -7.5010     2.5400    -0.3990 hc         1 DGX       0.045033
    113 H6YA        -6.2410     2.4550    -1.6370 hc         1 DGX       0.045033
    114 H6YB        -7.8820     1.9610    -2.0240 hc         1 DGX       0.045033
    115 H6Z        -12.5530    -2.7600     0.9010 hc         1 DGX       0.045033
    116 H6ZA       -11.7670    -1.9270     2.2490 hc         1 DGX       0.045033
    117 H6ZB       -13.4620    -1.6290     1.9100 hc         1 DGX       0.045033
    118 H2Y         -6.0300    -2.3910     1.5820 hc         1 DGX       0.067200
    119 H2Z        -10.7450     1.0800    -2.6260 hc         1 DGX       0.068700
@<TRIPOS>BOND
     1     1     2 1   
     2     1    11 1   
     3     1    56 1   
     4     1    57 1   
     5     2     3 1   
     6     2    58 1   
     7     2    59 1   
     8     3     4 1   
     9     3     5 1   
    10     3    60 1   
    11     4    23 1   
    12     5     6 1   
    13     5    61 1   
    14     5    62 1   
    15     6     7 1   
    16     6    11 1   
    17     6    63 1   
    18     7     8 1   
    19     7    64 1   
    20     7    65 1   
    21     8     9 1   
    22     8    66 1   
    23     8    67 1   
    24     9    10 1   
    25     9    16 1   
    26     9    68 1   
    27    10    11 1   
    28    10    12 1   
    29    10    69 1   
    30    11    22 1   
    31    12    13 1   
    32    12    70 1   
    33    12    71 1   
    34    13    14 1   
    35    13    15 1   
    36    13    72 1   
    37    14    73 1   
    38    15    16 1   
    39    15    20 1   
    40    15    21 1   
    41    16    17 1   
    42    16    18 1   
    43    17    74 1   
    44    18    19 1   
    45    18    75 1   
    46    18    76 1   
    47    19    20 1   
    48    19    77 1   
    49    19    78 1   
    50    20    26 1   
    51    20    79 1   
    52    21    80 1   
    53    21    81 1   
    54    21    82 1   
    55    22    83 1   
    56    22    84 1   
    57    22    85 1   
    58    23    32 1   
    59    23    48 1   
    60    23    86 1   
    61    24    33 1   
    62    24    42 1   
    63    24    50 1   
    64    24    87 1   
    65    25    34 1   
    66    25    44 1   
    67    25    52 1   
    68    25    88 1   
    69    26    27 1   
    70    26    29 2   
    71    27    28 1   
    72    27    89 1   
    73    27    90 1   
    74    28    30 1   
    75    29    30 1   
    76    29    91 1   
    77    30    31 2   
    78    32    35 1   
    79    32    92 1   
    80    32    93 1   
    81    33    37 1   
    82    33    94 1   
    83    33   118 1   
    84    34    39 1   
    85    34    95 1   
    86    34   119 1   
    87    35    36 1   
    88    35    41 1   
    89    35    96 1   
    90    36    97 1   
    91    37    38 1   
    92    37    43 1   
    93    37    98 1   
    94    38    99 1   
    95    39    40 1   
    96    39    45 1   
    97    39   100 1   
    98    40   101 1   
    99    41    42 1   
   100    41    47 1   
   101    41   102 1   
   102    43    44 1   
   103    43    49 1   
   104    43   103 1   
   105    45    46 1   
   106    45    51 1   
   107    45   104 1   
   108    46   105 1   
   109    47    48 1   
   110    47    53 1   
   111    47   106 1   
   112    49    50 1   
   113    49    54 1   
   114    49   107 1   
   115    51    52 1   
   116    51    55 1   
   117    51   108 1   
   118    53   109 1   
   119    53   110 1   
   120    53   111 1   
   121    54   112 1   
   122    54   113 1   
   123    54   114 1   
   124    55   115 1   
   125    55   116 1   
   126    55   117 1   
@<TRIPOS>SUBSTRUCTURE
     1 DGX         1 TEMP              0 ****  ****    0 ROOT
