@<TRIPOS>MOLECULE
DGY
   12    11     1     0     0
SMALL
No Charge or Current Charge


@<TRIPOS>ATOM
      1 C1           0.1190    -0.0670    -1.1740 c          1 DGY       0.690000
      2 O1           1.0320    -0.6560    -1.7370 o          1 DGY      -0.721000
      3 O2          -0.6370     0.7080    -1.7490 o          1 DGY      -0.721000
      4 C2          -0.2110    -0.4350     0.3130 c3         1 DGY       0.019300
      5 O3          -1.6250    -0.2440     0.6220 oh         1 DGY      -0.698000
      6 C3           0.6880     0.4090     1.2590 c3         1 DGY       0.153600
      7 O4           0.5630    -0.0250     2.6250 oh         1 DGY      -0.665000
      8 H2           0.0560    -1.4920     0.4460 h1         1 DGY       0.034700
      9 H3          -1.9630     0.3540    -0.0880 ho         1 DGY       0.467000
     10 H3C1         0.4150     1.4690     1.1680 h1         1 DGY       0.018700
     11 H3C2         1.7330     0.3110     0.9350 h1         1 DGY       0.018700
     12 H4           1.1170     0.5790     3.1670 ho         1 DGY       0.405000
@<TRIPOS>BOND
     1     1     2 1   
     2     1     3 1   
     3     1     4 1   
     4     4     5 1   
     5     4     6 1   
     6     4     8 1   
     7     5     9 1   
     8     6     7 1   
     9     6    10 1   
    10     6    11 1   
    11     7    12 1   
@<TRIPOS>SUBSTRUCTURE
     1 DGY         1 TEMP              0 ****  ****    0 ROOT
