@<TRIPOS>MOLECULE
DGY
   12    11     1     0     0
SMALL
bcc


@<TRIPOS>ATOM
      1 C1           0.0580    -0.0520    -1.1410 c          1 DGY       0.900600
      2 O1           1.1990    -0.2770    -1.5720 o          1 DGY      -0.826300
      3 O2          -0.9180     0.4170    -1.7680 o          1 DGY      -0.826300
      4 C2          -0.2310    -0.3770     0.3440 c3         1 DGY      -0.003900
      5 O3          -1.5660    -0.0610     0.6420 oh         1 DGY      -0.635800
      6 C3           0.7290     0.3770     1.2450 c3         1 DGY       0.130400
      7 O4           0.4850     0.0110     2.5870 oh         1 DGY      -0.602800
      8 H2          -0.0560    -1.4550     0.4890 h1         1 DGY       0.034700
      9 H3          -1.8890     0.2760    -0.2150 ho         1 DGY       0.428000
     10 H3C1         0.5930     1.4570     1.0940 h1         1 DGY       0.018700
     11 H3C2         1.7530     0.1330     0.9430 h1         1 DGY       0.018700
     12 H4           1.1290     0.4630     3.1390 ho         1 DGY       0.366000
@<TRIPOS>BOND
     1     1     2 1   
     2     1     3 1   
     3     1     4 1   
     4     4     5 1   
     5     4     6 1   
     6     4     8 1   
     7     5     9 1   
     8     6     7 1   
     9     6    10 1   
    10     6    11 1   
    11     7    12 1   
@<TRIPOS>SUBSTRUCTURE
     1 DGY         1 TEMP              0 ****  ****    0 ROOT
