@<TRIPOS>MOLECULE
DGZ
  141   145     1     0     0
SMALL
bcc


@<TRIPOS>ATOM
      1 C1          77.1600    65.0840    31.8190 c1         1 DGZ      -0.161500
      2 N1          83.4820    65.3710    29.3960 ns         1 DGZ      -0.574900
      3 O1          82.5350    64.6140    31.2900 o          1 DGZ      -0.603100
      4 C2          78.1780    65.2010    31.1880 c1         1 DGZ      -0.141100
      5 N2          89.7310    63.0540    28.1560 ns         1 DGZ      -0.567900
      6 O2          90.7370    61.0900    27.7370 o          1 DGZ      -0.586100
      7 N3          91.8930    63.7100    29.8870 ns         1 DGZ      -0.566900
      8 C4          80.3330    66.4250    31.0780 c3         1 DGZ      -0.058400
      9 N4          88.7240    69.6680    31.2430 ns         1 DGZ      -0.557900
     10 O4          92.5090    64.4190    27.8310 o          1 DGZ      -0.619100
     11 C5          81.6280    66.6180    30.3070 c3         1 DGZ      -0.157400
     12 N5          87.6560    71.8820    29.0490 ns         1 DGZ      -0.554900
     13 O5          92.8480    66.0090    30.9970 os         1 DGZ      -0.402600
     14 C6          82.5740    65.4350    30.3810 c          1 DGZ       0.660100
     15 N6          83.1970    72.7980    29.8720 n8         1 DGZ      -0.876800
     16 O6          90.8310    68.3560    32.9560 os         1 DGZ      -0.394600
     17 C7          84.5610    64.4070    29.3890 c3         1 DGZ       0.104000
     18 N7          90.5680    63.6330    25.5740 nt         1 DGZ      -0.661000
     19 C8          85.5370    64.6890    28.2580 c3         1 DGZ      -0.097400
     20 O8          86.3920    70.0240    28.7940 o          1 DGZ      -0.630100
     21 C9          86.7380    63.7560    28.3170 c3         1 DGZ      -0.076400
     22 O9          84.5370    71.7570    27.5900 oh         1 DGZ      -0.555800
     23 C10         87.6810    63.9450    27.1360 c3         1 DGZ      -0.087400
     24 O10         88.8740    62.3920    24.7450 o          1 DGZ      -0.610100
     25 C11         88.7870    62.8900    27.0730 c3         1 DGZ       0.027700
     26 C13         91.6500    62.3300    29.5380 c3         1 DGZ       0.033700
     27 C14         91.2000    61.5450    30.7930 c3         1 DGZ      -0.044100
     28 C15         90.1470    62.2610    31.5930 ca         1 DGZ      -0.071300
     29 C16         88.8110    62.2810    31.1950 ca         1 DGZ      -0.139000
     30 C17         87.8900    63.0770    31.8550 ca         1 DGZ      -0.092000
     31 C18         88.2750    63.8430    32.9530 ca         1 DGZ      -0.162600
     32 C19         87.3170    64.7350    33.6620 c          1 DGZ       0.590300
     33 C20         86.5180    65.6960    32.8560 ca         1 DGZ      -0.171600
     34 C21         85.3930    66.2950    33.4260 ca         1 DGZ      -0.084500
     35 C22         84.6860    67.2590    32.7280 ca         1 DGZ      -0.143500
     36 C23         85.1120    67.6590    31.4660 ca         1 DGZ      -0.105000
     37 C24         86.2330    67.0760    30.8960 ca         1 DGZ      -0.143500
     38 C25         86.9240    66.0880    31.5800 ca         1 DGZ      -0.084500
     39 C26         89.5860    63.7600    33.4100 ca         1 DGZ      -0.092000
     40 C27         90.5100    62.9860    32.7270 ca         1 DGZ      -0.139000
     41 C29         92.6540    66.0030    29.6100 c3         1 DGZ       0.050400
     42 C30         91.7610    66.4170    31.8060 c3         1 DGZ       0.087400
     43 C31         91.6260    67.9390    31.8710 c3         1 DGZ       0.104400
     44 C32         89.4620    68.0210    32.9130 c3         1 DGZ       0.115400
     45 C33         88.5810    69.2170    32.6090 c3         1 DGZ       0.069000
     46 C34         88.9180    70.9400    30.8750 c          1 DGZ       0.648100
     47 C35         88.8880    71.1880    29.3620 c3         1 DGZ       0.031700
     48 C36         90.0970    72.0120    28.9220 c3         1 DGZ      -0.031100
     49 C37         91.3790    71.2660    29.1670 ca         1 DGZ      -0.100300
     50 C38         91.7940    70.2680    28.2520 ca         1 DGZ      -0.125000
     51 C39         92.9330    69.5440    28.4650 ca         1 DGZ      -0.129000
     52 C40         93.7270    69.7680    29.6140 ca         1 DGZ      -0.040000
     53 C41         94.8980    69.0210    29.8790 ca         1 DGZ      -0.124000
     54 C42         95.6300    69.2510    31.0130 ca         1 DGZ      -0.115000
     55 C43         95.2260    70.2430    31.9300 ca         1 DGZ      -0.127000
     56 C44         94.1020    70.9870    31.6940 ca         1 DGZ      -0.109000
     57 C45         93.3240    70.7680    30.5340 ca         1 DGZ      -0.042000
     58 C46         92.1440    71.5040    30.2790 ca         1 DGZ      -0.088000
     59 C48         85.2450    72.1200    28.7420 c3         1 DGZ       0.086100
     60 C49         84.4040    72.0130    30.0300 c3         1 DGZ       0.135500
     61 C50         85.2490    72.3880    31.2670 c3         1 DGZ      -0.077100
     62 C51         84.4880    72.2240    32.5500 ca         1 DGZ      -0.086300
     63 C52         83.7480    73.2680    33.1000 ca         1 DGZ      -0.129000
     64 C53         83.0170    73.0850    34.2680 ca         1 DGZ      -0.123500
     65 C54         83.0150    71.8510    34.9040 ca         1 DGZ      -0.122000
     66 C55         83.7540    70.8030    34.3680 ca         1 DGZ      -0.123500
     67 C56         84.4840    70.9930    33.2040 ca         1 DGZ      -0.129000
     68 C57         89.4360    62.9300    25.6870 c          1 DGZ       0.664100
     69 H1          76.2570    64.9770    32.3740 ha         1 DGZ       0.165500
     70 HN1         83.4840    66.0920    28.6930 hn         1 DGZ       0.311500
     71 HN2         89.6810    63.8750    28.7400 hn         1 DGZ       0.322500
     72 H3          79.9380    64.4020    30.4070 hc         1 DGZ       0.060700
     73 H3A         79.1960    65.6390    29.4160 hc         1 DGZ       0.060700
     74 HN3         91.9290    63.9420    30.8670 hn         1 DGZ       0.334500
     75 H4          79.7990    67.3770    31.1070 hc         1 DGZ       0.056200
     76 H4A         80.5480    66.1580    32.1130 hc         1 DGZ       0.056200
     77 HN4         88.5370    68.9930    30.5180 hn         1 DGZ       0.314500
     78 H5          81.4190    66.8710    29.2640 hc         1 DGZ       0.054700
     79 H5A         82.1620    67.4800    30.7200 hc         1 DGZ       0.054700
     80 HN5         87.6430    72.8850    29.1680 hn         1 DGZ       0.327500
     81 HN6A        83.4200    73.7870    29.8980 hn         1 DGZ       0.348300
     82 H7          85.0900    64.4410    30.3450 h1         1 DGZ       0.051200
     83 H7A         84.1620    63.3940    29.2820 h1         1 DGZ       0.051200
     84 HN7         91.0330    63.6770    24.6820 hn         1 DGZ       0.325000
     85 HN7A        91.0730    63.9860    26.3740 hn         1 DGZ       0.325000
     86 H8          85.0270    64.5770    27.2960 hc         1 DGZ       0.047200
     87 H8A         85.8770    65.7280    28.3140 hc         1 DGZ       0.047200
     88 H9          87.2730    63.9200    29.2550 hc         1 DGZ       0.043200
     89 H9A         86.3920    62.7170    28.3350 hc         1 DGZ       0.043200
     90 HO9         84.2400    70.8450    27.6920 ho         1 DGZ       0.418000
     91 H10         87.1050    63.8750    26.2110 hc         1 DGZ       0.059700
     92 H10A        88.1240    64.9460    27.1530 hc         1 DGZ       0.059700
     93 H11         88.3190    61.9040    27.1500 h1         1 DGZ       0.093700
     94 H13         92.5780    61.8650    29.1900 h1         1 DGZ       0.090700
     95 H14         90.8560    60.5610    30.4720 hc         1 DGZ       0.074200
     96 H14A        92.0810    61.3820    31.4160 hc         1 DGZ       0.074200
     97 H16         88.4860    61.6850    30.3520 ha         1 DGZ       0.141000
     98 H17         86.8620    63.0970    31.5140 ha         1 DGZ       0.147500
     99 H21         85.0670    66.0010    34.4150 ha         1 DGZ       0.142000
    100 H22         83.8060    67.7080    33.1700 ha         1 DGZ       0.142000
    101 H23         84.5700    68.4270    30.9280 ha         1 DGZ       0.136000
    102 H24         86.5720    67.3900    29.9180 ha         1 DGZ       0.142000
    103 H25         87.8010    65.6480    31.1230 ha         1 DGZ       0.142000
    104 H26         89.8990    64.3300    34.2760 ha         1 DGZ       0.147500
    105 H27         91.5370    62.9580    33.0750 ha         1 DGZ       0.141000
    106 H29         91.8460    66.6700    29.2870 h1         1 DGZ       0.077200
    107 H29A        93.5670    66.3630    29.1290 h1         1 DGZ       0.077200
    108 H30         90.8260    65.9480    31.4750 h1         1 DGZ       0.051200
    109 H30A        91.9730    66.0390    32.8090 h1         1 DGZ       0.051200
    110 H31         91.2560    68.3400    30.9180 h1         1 DGZ       0.062200
    111 H31A        92.6160    68.3690    32.0390 h1         1 DGZ       0.062200
    112 H32         89.2550    67.2300    32.1860 h1         1 DGZ       0.044700
    113 H32A        89.1740    67.6250    33.8920 h1         1 DGZ       0.044700
    114 H33         88.8180    70.0440    33.2770 h1         1 DGZ       0.069700
    115 H33A        87.5410    68.9340    32.7990 h1         1 DGZ       0.069700
    116 H35         88.8880    70.2450    28.8120 h1         1 DGZ       0.080700
    117 H36         89.9890    72.2320    27.8570 hc         1 DGZ       0.066200
    118 H36A        90.1030    72.9660    29.4530 hc         1 DGZ       0.066200
    119 H38         91.1970    70.0850    27.3660 ha         1 DGZ       0.131000
    120 H39         93.2410    68.7880    27.7510 ha         1 DGZ       0.133000
    121 H41         95.2060    68.2600    29.1720 ha         1 DGZ       0.131000
    122 H42         96.5220    68.6710    31.2100 ha         1 DGZ       0.135000
    123 H43         95.8130    70.4150    32.8240 ha         1 DGZ       0.135000
    124 H44         93.7900    71.7480    32.3990 ha         1 DGZ       0.139000
    125 H46         91.8440    72.2650    30.9910 ha         1 DGZ       0.148000
    126 H48         85.5340    73.1690    28.6050 h1         1 DGZ       0.079700
    127 H49         84.1000    70.9640    30.1380 h1         1 DGZ       0.067700
    128 H50         86.1410    71.7600    31.3180 hc         1 DGZ       0.057200
    129 H50A        85.5940    73.4210    31.1600 hc         1 DGZ       0.057200
    130 H52         83.7510    74.2380    32.6160 ha         1 DGZ       0.128000
    131 H53         82.4510    73.9100    34.6820 ha         1 DGZ       0.133500
    132 H54         82.4480    71.7090    35.8150 ha         1 DGZ       0.135000
    133 H55         83.7670    69.8390    34.8610 ha         1 DGZ       0.133500
    134 H56         85.0700    70.1760    32.7980 ha         1 DGZ       0.128000
    135 C12         90.6650    62.1190    28.3910 c          1 DGZ       0.658100
    136 C28         92.3600    64.6270    29.0280 c          1 DGZ       0.636100
    137 C3          79.4230    65.3650    30.4500 c3         1 DGZ       0.004700
    138 O3          87.2330    64.7090    34.8730 o          1 DGZ      -0.503100
    139 C47         86.4880    71.2410    28.8660 c          1 DGZ       0.636100
    140 O7          89.0660    71.8710    31.6530 o          1 DGZ      -0.604100
    141 HN6         82.5740    72.6310    30.6520 hn         1 DGZ       0.348300
@<TRIPOS>BOND
     1     1     4 3   
     2     1    69 1   
     3     2    14 1   
     4     2    17 1   
     5     2    70 1   
     6     3    14 2   
     7     4   137 1   
     8     5    25 1   
     9     5    71 1   
    10     5   135 1   
    11     6   135 2   
    12     7    26 1   
    13     7    74 1   
    14     7   136 1   
    15     8    11 1   
    16     8    75 1   
    17     8    76 1   
    18     8   137 1   
    19     9    45 1   
    20     9    46 1   
    21     9    77 1   
    22    10   136 2   
    23    11    14 1   
    24    11    78 1   
    25    11    79 1   
    26    12    47 1   
    27    12    80 1   
    28    12   139 1   
    29    13    41 1   
    30    13    42 1   
    31    15    60 1   
    32    15    81 1   
    33    15   141 1   
    34    16    43 1   
    35    16    44 1   
    36    17    19 1   
    37    17    82 1   
    38    17    83 1   
    39    18    68 1   
    40    18    84 1   
    41    18    85 1   
    42    19    21 1   
    43    19    86 1   
    44    19    87 1   
    45    20   139 2   
    46    21    23 1   
    47    21    88 1   
    48    21    89 1   
    49    22    59 1   
    50    22    90 1   
    51    23    25 1   
    52    23    91 1   
    53    23    92 1   
    54    24    68 2   
    55    25    68 1   
    56    25    93 1   
    57    26    27 1   
    58    26    94 1   
    59    26   135 1   
    60    27    28 1   
    61    27    95 1   
    62    27    96 1   
    63    28    29 ar  
    64    28    40 ar  
    65    29    30 ar  
    66    29    97 1   
    67    30    31 ar  
    68    30    98 1   
    69    31    32 1   
    70    31    39 ar  
    71    32    33 1   
    72    32   138 2   
    73    33    34 ar  
    74    33    38 ar  
    75    34    35 ar  
    76    34    99 1   
    77    35    36 ar  
    78    35   100 1   
    79    36    37 ar  
    80    36   101 1   
    81    37    38 ar  
    82    37   102 1   
    83    38   103 1   
    84    39    40 ar  
    85    39   104 1   
    86    40   105 1   
    87    41   106 1   
    88    41   107 1   
    89    41   136 1   
    90    42    43 1   
    91    42   108 1   
    92    42   109 1   
    93    43   110 1   
    94    43   111 1   
    95    44    45 1   
    96    44   112 1   
    97    44   113 1   
    98    45   114 1   
    99    45   115 1   
   100    46    47 1   
   101    46   140 2   
   102    47    48 1   
   103    47   116 1   
   104    48    49 1   
   105    48   117 1   
   106    48   118 1   
   107    49    50 ar  
   108    49    58 ar  
   109    50    51 ar  
   110    50   119 1   
   111    51    52 ar  
   112    51   120 1   
   113    52    53 ar  
   114    52    57 ar  
   115    53    54 ar  
   116    53   121 1   
   117    54    55 ar  
   118    54   122 1   
   119    55    56 ar  
   120    55   123 1   
   121    56    57 ar  
   122    56   124 1   
   123    57    58 ar  
   124    58   125 1   
   125    59    60 1   
   126    59   126 1   
   127    59   139 1   
   128    60    61 1   
   129    60   127 1   
   130    61    62 1   
   131    61   128 1   
   132    61   129 1   
   133    62    63 ar  
   134    62    67 ar  
   135    63    64 ar  
   136    63   130 1   
   137    64    65 ar  
   138    64   131 1   
   139    65    66 ar  
   140    65   132 1   
   141    66    67 ar  
   142    66   133 1   
   143    67   134 1   
   144    72   137 1   
   145    73   137 1   
@<TRIPOS>SUBSTRUCTURE
     1 DGZ         1 TEMP              0 ****  ****    0 ROOT
