@<TRIPOS>MOLECULE
DGZ
  141   145     1     0     0
SMALL
No Charge or Current Charge


@<TRIPOS>ATOM
      1 C1          79.0310    68.0860    28.5810 c1         1 DGZ      -0.249000
      2 N1          84.7130    66.3160    30.0340 ns         1 DGZ      -0.507900
      3 O1          83.4450    64.9490    31.3400 o          1 DGZ      -0.603100
      4 C2          80.1600    67.8530    28.9480 c1         1 DGZ      -0.141100
      5 N2          90.5900    63.6040    28.2250 ns         1 DGZ      -0.500900
      6 O2          90.4200    61.4030    27.6850 o          1 DGZ      -0.586100
      7 N3          92.1670    63.1110    30.4380 ns         1 DGZ      -0.499900
      8 C4          81.6010    67.4990    30.9690 c3         1 DGZ      -0.058400
      9 N4          89.3700    69.9090    31.5020 ns         1 DGZ      -0.490900
     10 O4          93.6580    63.7800    28.8610 o          1 DGZ      -0.619100
     11 C5          83.0380    67.3240    31.5180 c3         1 DGZ      -0.157400
     12 N5          86.5190    71.0840    29.3830 ns         1 DGZ      -0.487900
     13 O5          92.5730    65.3390    31.9570 os         1 DGZ      -0.449000
     14 C6          83.7300    66.0780    30.9660 c          1 DGZ       0.593100
     15 N6          81.7070    71.6730    29.6550 n8         1 DGZ      -0.987200
     16 O6          91.7390    68.2210    32.6470 os         1 DGZ      -0.441000
     17 C7          85.5320    65.2690    29.4340 c3         1 DGZ       0.104000
     18 N7          92.2920    64.4620    26.2380 nt         1 DGZ      -0.594000
     19 C8          86.7310    65.8340    28.6530 c3         1 DGZ      -0.097400
     20 O8          85.2800    69.1700    29.3650 o          1 DGZ      -0.630100
     21 C9          87.7170    64.7270    28.2250 c3         1 DGZ      -0.076400
     22 O9          83.3710    70.9530    27.7920 oh         1 DGZ      -0.618000
     23 C10         88.9110    65.2610    27.4060 c3         1 DGZ      -0.087400
     24 O10         90.6680    65.2270    24.9320 o          1 DGZ      -0.610100
     25 C11         89.9370    64.1650    27.0180 c3         1 DGZ       0.027700
     26 C13         91.6240    61.9130    29.7490 c3         1 DGZ       0.033700
     27 C14         90.8020    61.0500    30.7430 c3         1 DGZ      -0.044100
     28 C15         89.9570    61.8880    31.7010 ca         1 DGZ      -0.071300
     29 C16         88.6880    62.3550    31.3150 ca         1 DGZ      -0.121000
     30 C17         87.9410    63.1760    32.1790 ca         1 DGZ      -0.074000
     31 C18         88.4620    63.5530    33.4340 ca         1 DGZ      -0.162600
     32 C19         87.6900    64.4530    34.3670 c          1 DGZ       0.590300
     33 C20         87.0840    65.7380    33.8340 ca         1 DGZ      -0.171600
     34 C21         86.1560    66.4560    34.6240 ca         1 DGZ      -0.066500
     35 C22         85.6310    67.6820    34.1780 ca         1 DGZ      -0.125500
     36 C23         86.0290    68.2100    32.9410 ca         1 DGZ      -0.087000
     37 C24         86.9410    67.5030    32.1460 ca         1 DGZ      -0.125500
     38 C25         87.4700    66.2790    32.5850 ca         1 DGZ      -0.066500
     39 C26         89.7180    63.0530    33.8320 ca         1 DGZ      -0.074000
     40 C27         90.4600    62.2300    32.9710 ca         1 DGZ      -0.121000
     41 C29         93.5860    65.0640    30.9420 c3         1 DGZ       0.073600
     42 C30         91.3870    66.0510    31.5270 c3         1 DGZ       0.110600
     43 C31         91.6930    67.5650    31.3570 c3         1 DGZ       0.127600
     44 C32         90.4790    68.4990    33.3060 c3         1 DGZ       0.138600
     45 C33         89.9340    69.8810    32.8610 c3         1 DGZ       0.069000
     46 C34         88.2490    70.6200    31.1240 c          1 DGZ       0.581100
     47 C35         87.8430    70.4680    29.6260 c3         1 DGZ       0.031700
     48 C36         88.8930    71.0810    28.6650 c3         1 DGZ      -0.031100
     49 C37         90.1430    70.2220    28.5040 ca         1 DGZ      -0.100300
     50 C38         90.0930    69.0450    27.7340 ca         1 DGZ      -0.107000
     51 C39         91.2440    68.2560    27.5710 ca         1 DGZ      -0.111000
     52 C40         92.4500    68.6260    28.1890 ca         1 DGZ      -0.040000
     53 C41         93.5970    67.8230    28.0460 ca         1 DGZ      -0.106000
     54 C42         94.7970    68.1930    28.6760 ca         1 DGZ      -0.097000
     55 C43         94.8550    69.3660    29.4470 ca         1 DGZ      -0.109000
     56 C44         93.7130    70.1740    29.5890 ca         1 DGZ      -0.091000
     57 C45         92.5070    69.8060    28.9620 ca         1 DGZ      -0.042000
     58 C46         91.3570    70.6040    29.1100 ca         1 DGZ      -0.070000
     59 C48         84.0760    71.2870    29.0040 c3         1 DGZ       0.109300
     60 C49         83.0300    71.1980    30.1470 c3         1 DGZ       0.135500
     61 C50         83.4500    71.9440    31.4350 c3         1 DGZ      -0.077100
     62 C51         82.4720    71.7300    32.5860 ca         1 DGZ      -0.086300
     63 C52         81.5010    72.7040    32.8940 ca         1 DGZ      -0.111000
     64 C53         80.5960    72.4950    33.9490 ca         1 DGZ      -0.105500
     65 C54         80.6570    71.3120    34.7050 ca         1 DGZ      -0.104000
     66 C55         81.6260    70.3390    34.4060 ca         1 DGZ      -0.105500
     67 C56         82.5310    70.5500    33.3520 ca         1 DGZ      -0.111000
     68 C57         90.9810    64.6660    25.9700 c          1 DGZ       0.597100
     69 H1          78.0320    68.3060    28.2590 ha         1 DGZ       0.253000
     70 HN1         84.9000    67.2870    29.7910 hn         1 DGZ       0.311500
     71 HN2         90.9310    64.2400    28.9340 hn         1 DGZ       0.322500
     72 H3          81.8660    66.6390    28.9820 hc         1 DGZ       0.060700
     73 H3A         82.1890    68.3690    29.0570 hc         1 DGZ       0.060700
     74 HN3         91.8200    63.3330    31.3680 hn         1 DGZ       0.334500
     75 H4          81.1720    68.4120    31.4030 hc         1 DGZ       0.056200
     76 H4A         80.9800    66.6640    31.3180 hc         1 DGZ       0.056200
     77 HN4         89.8580    69.4150    30.7660 hn         1 DGZ       0.314500
     78 H5          83.6200    68.2130    31.2570 hc         1 DGZ       0.054700
     79 H5A         82.9770    67.2350    32.6090 hc         1 DGZ       0.054700
     80 HN5         86.4680    72.0940    29.3160 hn         1 DGZ       0.327500
     81 HN6A        81.6880    72.7000    29.6870 hn         1 DGZ       0.403500
     82 H7          85.9000    64.6190    30.2370 h1         1 DGZ       0.051200
     83 H7A         84.9060    64.6640    28.7650 h1         1 DGZ       0.051200
     84 HN7         92.9850    64.7690    25.5730 hn         1 DGZ       0.325000
     85 HN7A        92.5740    64.0220    27.1060 hn         1 DGZ       0.325000
     86 H8          86.3670    66.3730    27.7700 hc         1 DGZ       0.047200
     87 H8A         87.2650    66.5600    29.2770 hc         1 DGZ       0.047200
     88 H9          88.0900    64.2240    29.1250 hc         1 DGZ       0.043200
     89 H9A         87.1830    63.9720    27.6340 hc         1 DGZ       0.043200
     90 HO9         82.4330    71.1100    28.0810 ho         1 DGZ       0.457000
     91 H10         88.5230    65.7340    26.4950 hc         1 DGZ       0.059700
     92 H10A        89.4200    66.0450    27.9790 hc         1 DGZ       0.059700
     93 H11         89.3890    63.3600    26.5120 h1         1 DGZ       0.093700
     94 H13         92.4730    61.3130    29.3960 h1         1 DGZ       0.090700
     95 H14         90.1760    60.3350    30.1950 hc         1 DGZ       0.074200
     96 H14A        91.5040    60.4380    31.3230 hc         1 DGZ       0.074200
     97 H16         88.2800    62.0850    30.3440 ha         1 DGZ       0.123000
     98 H17         86.9550    63.5190    31.8730 ha         1 DGZ       0.129500
     99 H21         85.8440    66.0710    35.5930 ha         1 DGZ       0.124000
    100 H22         84.9220    68.2270    34.7980 ha         1 DGZ       0.124000
    101 H23         85.6330    69.1630    32.5980 ha         1 DGZ       0.118000
    102 H24         87.2450    67.9080    31.1870 ha         1 DGZ       0.124000
    103 H25         88.1960    65.7740    31.9540 ha         1 DGZ       0.124000
    104 H26         90.1280    63.3180    34.8050 ha         1 DGZ       0.129500
    105 H27         91.4360    61.8690    33.2890 ha         1 DGZ       0.123000
    106 H29         93.8260    65.9530    30.3480 h1         1 DGZ       0.077200
    107 H29A        94.5110    64.7280    31.4270 h1         1 DGZ       0.077200
    108 H30         91.0180    65.6550    30.5730 h1         1 DGZ       0.051200
    109 H30A        90.5840    65.9150    32.2610 h1         1 DGZ       0.051200
    110 H31         90.9280    68.0080    30.7100 h1         1 DGZ       0.062200
    111 H31A        92.6540    67.6870    30.8450 h1         1 DGZ       0.062200
    112 H32         89.7320    67.7190    33.1200 h1         1 DGZ       0.044700
    113 H32A        90.6440    68.5400    34.3900 h1         1 DGZ       0.044700
    114 H33         90.7380    70.6250    32.9270 h1         1 DGZ       0.069700
    115 H33A        89.1530    70.1760    33.5750 h1         1 DGZ       0.069700
    116 H35         87.7750    69.3930    29.4150 h1         1 DGZ       0.080700
    117 H36         88.4320    71.2060    27.6760 hc         1 DGZ       0.066200
    118 H36A        89.1500    72.0930    29.0030 hc         1 DGZ       0.066200
    119 H38         89.1650    68.7460    27.2520 ha         1 DGZ       0.113000
    120 H39         91.1980    67.3580    26.9610 ha         1 DGZ       0.115000
    121 H41         93.5600    66.9130    27.4520 ha         1 DGZ       0.113000
    122 H42         95.6830    67.5700    28.5660 ha         1 DGZ       0.117000
    123 H43         95.7850    69.6510    29.9340 ha         1 DGZ       0.117000
    124 H44         93.7660    71.0790    30.1890 ha         1 DGZ       0.121000
    125 H46         91.4040    71.5150    29.7040 ha         1 DGZ       0.130000
    126 H48         84.4200    72.3280    28.9420 h1         1 DGZ       0.079700
    127 H49         82.9150    70.1360    30.3980 h1         1 DGZ       0.067700
    128 H50         84.4460    71.5970    31.7390 hc         1 DGZ       0.057200
    129 H50A        83.5600    73.0140    31.2190 hc         1 DGZ       0.057200
    130 H52         81.4450    73.6230    32.3140 ha         1 DGZ       0.110000
    131 H53         79.8480    73.2500    34.1810 ha         1 DGZ       0.115500
    132 H54         79.9570    71.1500    35.5210 ha         1 DGZ       0.117000
    133 H55         81.6770    69.4240    34.9920 ha         1 DGZ       0.115500
    134 H56         83.2800    69.7940    33.1320 ha         1 DGZ       0.110000
    135 C12         90.8090    62.2620    28.4650 c          1 DGZ       0.591100
    136 C28         93.1700    63.9320    29.9720 c          1 DGZ       0.569100
    137 C3          81.5220    67.5810    29.4250 c3         1 DGZ       0.004700
    138 O3          87.5790    64.1510    35.5500 o          1 DGZ      -0.503100
    139 C47         85.3290    70.3910    29.2650 c          1 DGZ       0.569100
    140 O7          87.6250    71.3080    31.9230 o          1 DGZ      -0.604100
    141 HN6         80.9960    71.4180    30.3520 hn         1 DGZ       0.403500
@<TRIPOS>BOND
     1     1     4 3   
     2     1    69 1   
     3     2    14 1   
     4     2    17 1   
     5     2    70 1   
     6     3    14 2   
     7     4   137 1   
     8     5    25 1   
     9     5    71 1   
    10     5   135 1   
    11     6   135 2   
    12     7    26 1   
    13     7    74 1   
    14     7   136 1   
    15     8    11 1   
    16     8    75 1   
    17     8    76 1   
    18     8   137 1   
    19     9    45 1   
    20     9    46 1   
    21     9    77 1   
    22    10   136 2   
    23    11    14 1   
    24    11    78 1   
    25    11    79 1   
    26    12    47 1   
    27    12    80 1   
    28    12   139 1   
    29    13    41 1   
    30    13    42 1   
    31    15    60 1   
    32    15    81 1   
    33    15   141 1   
    34    16    43 1   
    35    16    44 1   
    36    17    19 1   
    37    17    82 1   
    38    17    83 1   
    39    18    68 1   
    40    18    84 1   
    41    18    85 1   
    42    19    21 1   
    43    19    86 1   
    44    19    87 1   
    45    20   139 2   
    46    21    23 1   
    47    21    88 1   
    48    21    89 1   
    49    22    59 1   
    50    22    90 1   
    51    23    25 1   
    52    23    91 1   
    53    23    92 1   
    54    24    68 2   
    55    25    68 1   
    56    25    93 1   
    57    26    27 1   
    58    26    94 1   
    59    26   135 1   
    60    27    28 1   
    61    27    95 1   
    62    27    96 1   
    63    28    29 ar  
    64    28    40 ar  
    65    29    30 ar  
    66    29    97 1   
    67    30    31 ar  
    68    30    98 1   
    69    31    32 1   
    70    31    39 ar  
    71    32    33 1   
    72    32   138 2   
    73    33    34 ar  
    74    33    38 ar  
    75    34    35 ar  
    76    34    99 1   
    77    35    36 ar  
    78    35   100 1   
    79    36    37 ar  
    80    36   101 1   
    81    37    38 ar  
    82    37   102 1   
    83    38   103 1   
    84    39    40 ar  
    85    39   104 1   
    86    40   105 1   
    87    41   106 1   
    88    41   107 1   
    89    41   136 1   
    90    42    43 1   
    91    42   108 1   
    92    42   109 1   
    93    43   110 1   
    94    43   111 1   
    95    44    45 1   
    96    44   112 1   
    97    44   113 1   
    98    45   114 1   
    99    45   115 1   
   100    46    47 1   
   101    46   140 2   
   102    47    48 1   
   103    47   116 1   
   104    48    49 1   
   105    48   117 1   
   106    48   118 1   
   107    49    50 ar  
   108    49    58 ar  
   109    50    51 ar  
   110    50   119 1   
   111    51    52 ar  
   112    51   120 1   
   113    52    53 ar  
   114    52    57 ar  
   115    53    54 ar  
   116    53   121 1   
   117    54    55 ar  
   118    54   122 1   
   119    55    56 ar  
   120    55   123 1   
   121    56    57 ar  
   122    56   124 1   
   123    57    58 ar  
   124    58   125 1   
   125    59    60 1   
   126    59   126 1   
   127    59   139 1   
   128    60    61 1   
   129    60   127 1   
   130    61    62 1   
   131    61   128 1   
   132    61   129 1   
   133    62    63 ar  
   134    62    67 ar  
   135    63    64 ar  
   136    63   130 1   
   137    64    65 ar  
   138    64   131 1   
   139    65    66 ar  
   140    65   132 1   
   141    66    67 ar  
   142    66   133 1   
   143    67   134 1   
   144    72   137 1   
   145    73   137 1   
@<TRIPOS>SUBSTRUCTURE
     1 DGZ         1 TEMP              0 ****  ****    0 ROOT
