@<TRIPOS>MOLECULE
DH1
   46    47     1     0     0
SMALL
No Charge or Current Charge


@<TRIPOS>ATOM
      1 C16          3.0470     3.5840     1.2420 c3         1 DH1       0.150900
      2 O1           2.8770     2.5420     0.2650 os         1 DH1      -0.343100
      3 C2           1.6630     1.9180     0.0440 ca         1 DH1       0.098100
      4 C3           0.4950     2.2930     0.7480 ca         1 DH1      -0.156000
      5 C4          -0.7290     1.6510     0.4910 ca         1 DH1      -0.164000
      6 C5          -0.8000     0.6290    -0.4770 ca         1 DH1       0.133100
      7 O5          -1.9740    -0.0320    -0.7770 os         1 DH1      -0.352100
      8 C52         -3.2160     0.2760    -0.1210 c3         1 DH1       0.157600
      9 C1          -4.2980    -0.6510    -0.7070 c3         1 DH1      -0.086400
     10 C10         -5.6920    -0.4190    -0.0810 c3         1 DH1      -0.049400
     11 C7          -6.7840    -1.3480    -0.6660 c3         1 DH1      -0.214400
     12 C8          -8.1400    -1.0600     0.0030 c          1 DH1       0.725000
     13 O9          -8.4190    -1.6670     1.0260 o          1 DH1      -0.738500
     14 O10         -8.8550    -0.2000    -0.4900 o          1 DH1      -0.738500
     15 C6           0.3580     0.2550    -1.1760 ca         1 DH1      -0.139000
     16 C13          1.5950     0.8840    -0.9190 ca         1 DH1      -0.084300
     17 C51          2.8380     0.4460    -1.6950 c3         1 DH1       0.054200
     18 C12          3.8840    -0.2360    -0.8100 ca         1 DH1      -0.286300
     19 C14          5.1290     0.3790    -0.5770 ca         1 DH1       0.176900
     20 N1           6.0720    -0.2010     0.1900 nb         1 DH1      -0.285000
     21 C9           5.7530    -1.3910     0.7130 ca         1 DH1       0.397900
     22 N2           6.6960    -1.9770     1.4860 nv         1 DH1      -1.062900
     23 N3           4.6120    -2.0700     0.5680 nb         1 DH1      -0.332000
     24 C11          3.6840    -1.4840    -0.1960 ca         1 DH1       0.413900
     25 N4           2.5320    -2.1860    -0.3210 nv         1 DH1      -1.059900
     26 H161         4.0890     3.9270     1.2530 h1         1 DH1       0.035033
     27 H162         2.4080     4.4450     1.0080 h1         1 DH1       0.035033
     28 H163         2.7970     3.2200     2.2470 h1         1 DH1       0.035033
     29 H3           0.5170     3.0820     1.4950 ha         1 DH1       0.112000
     30 H4          -1.6080     1.9620     1.0480 ha         1 DH1       0.126000
     31 H521        -3.1350     0.1080     0.9610 h1         1 DH1       0.032200
     32 H522        -3.4970     1.3230    -0.2960 h1         1 DH1       0.032200
     33 H11         -4.3570    -0.4920    -1.7910 hc         1 DH1       0.041700
     34 H12         -3.9990    -1.6950    -0.5470 hc         1 DH1       0.041700
     35 H31         -5.6290    -0.5730     1.0030 hc         1 DH1       0.041200
     36 H32         -5.9860     0.6270    -0.2370 hc         1 DH1       0.041200
     37 H71         -6.8290    -1.1210    -1.7380 hc         1 DH1       0.015200
     38 H72         -6.4570    -2.3720    -0.4450 hc         1 DH1       0.015200
     39 H6           0.2870    -0.5270    -1.9280 ha         1 DH1       0.123000
     40 H511         2.5600    -0.2290    -2.5140 hc         1 DH1       0.051700
     41 H512         3.2770     1.3210    -2.1900 hc         1 DH1       0.051700
     42 H2           5.3780     1.3470    -1.0100 h4         1 DH1       0.016100
     43 HN21         7.4760    -1.4100     1.8070 hn         1 DH1       0.482500
     44 HN22         6.4220    -2.7590     2.0740 hn         1 DH1       0.482500
     45 HN41         2.3910    -2.9640     0.3170 hn         1 DH1       0.487000
     46 HN42         1.7000    -1.6700    -0.5880 hn         1 DH1       0.487000
@<TRIPOS>BOND
     1     1     2 1   
     2     1    26 1   
     3     1    27 1   
     4     1    28 1   
     5     2     3 1   
     6     3     4 ar  
     7     3    16 ar  
     8     4     5 ar  
     9     4    29 1   
    10     5     6 ar  
    11     5    30 1   
    12     6     7 1   
    13     6    15 ar  
    14     7     8 1   
    15     8     9 1   
    16     8    31 1   
    17     8    32 1   
    18     9    10 1   
    19     9    33 1   
    20     9    34 1   
    21    10    11 1   
    22    10    35 1   
    23    10    36 1   
    24    11    12 1   
    25    11    37 1   
    26    11    38 1   
    27    12    13 1   
    28    12    14 1   
    29    15    16 ar  
    30    15    39 1   
    31    16    17 1   
    32    17    18 1   
    33    17    40 1   
    34    17    41 1   
    35    18    19 ar  
    36    18    24 ar  
    37    19    20 ar  
    38    19    42 1   
    39    20    21 ar  
    40    21    22 1   
    41    21    23 ar  
    42    22    43 1   
    43    22    44 1   
    44    23    24 ar  
    45    24    25 1   
    46    25    45 1   
    47    25    46 1   
@<TRIPOS>SUBSTRUCTURE
     1 DH1         1 TEMP              0 ****  ****    0 ROOT
