@<TRIPOS>MOLECULE
DH1
   46    47     1     0     0
SMALL
bcc


@<TRIPOS>ATOM
      1 H16          2.9570     3.5120     1.1110 c3         1 DH1      -0.062000
      2 H1           2.8330     2.4760     0.1630 os         1 DH1      -0.203000
      3 H2           1.6200     1.9130    -0.0260 ca         1 DH1       0.053000
      4 H3           0.4590     2.3100     0.6220 ca         1 DH1      -0.174000
      5 H4          -0.7630     1.6920     0.3540 ca         1 DH1      -0.182000
      6 H5          -0.8310     0.6700    -0.5770 ca         1 DH1       0.088000
      7 H5          -1.9500    -0.0110    -0.9060 os         1 DH1      -0.212000
      8 H52         -3.1640     0.3010    -0.2340 c3         1 DH1      -0.016000
      9 H1          -4.2600    -0.6210    -0.7500 c3         1 DH1      -0.165000
     10 H10         -5.5830    -0.3870    -0.0230 c3         1 DH1      -0.128000
     11 H7          -6.6910    -1.2810    -0.5370 c3         1 DH1      -0.243000
     12 H8          -8.0540    -1.1060     0.1640 c          1 DH1       0.355000
     13 H9          -8.9660    -1.8520    -0.2210 o          1 DH1      -0.578500
     14 H10         -8.0950    -0.2320     1.0540 o          1 DH1      -0.578500
     15 H6           0.3440     0.2750    -1.2200 ca         1 DH1      -0.157000
     16 H13          1.5690     0.8580    -0.9520 ca         1 DH1      -0.077000
     17 H51          2.8170     0.3830    -1.6540 c3         1 DH1      -0.039000
     18 H12          3.8390    -0.2420    -0.7440 ca         1 DH1      -0.279000
     19 H14          5.0480     0.3640    -0.4850 ca         1 DH1       0.040000
     20 H1           6.0060    -0.1420     0.2850 nb         1 DH1      -0.285000
     21 H9           5.7250    -1.3230     0.8350 ca         1 DH1       0.205000
     22 H2           6.6800    -1.8860     1.6160 nv         1 DH1      -0.350000
     23 H3           4.5980    -2.0120     0.6780 nb         1 DH1      -0.332000
     24 H11          3.6570    -1.4850    -0.1000 ca         1 DH1       0.221000
     25 H4           2.5450    -2.2310    -0.2880 nv         1 DH1      -0.347000
     26 H161         4.0070     3.8030     1.1420 ha         1 DH1       0.074333
     27 H162         2.3700     4.3930     0.8330 ha         1 DH1       0.074333
     28 H163         2.6500     3.1930     2.1110 ha         1 DH1       0.074333
     29 H3           0.4700     3.1140     1.3450 ha         1 DH1       0.130000
     30 H4          -1.6380     2.0340     0.8910 ha         1 DH1       0.144000
     31 H521        -3.0500     0.1740     0.8510 ha         1 DH1       0.071500
     32 H522        -3.4380     1.3490    -0.4110 ha         1 DH1       0.071500
     33 H11         -4.3980    -0.4580    -1.8240 ha         1 DH1       0.081000
     34 H12         -3.9490    -1.6630    -0.6250 ha         1 DH1       0.081000
     35 H31         -5.4420    -0.5540     1.0480 ha         1 DH1       0.080500
     36 H32         -5.8780     0.6600    -0.1300 ha         1 DH1       0.080500
     37 H71         -6.8320    -1.1150    -1.6120 ha         1 DH1       0.054500
     38 H72         -6.3970    -2.3340    -0.4570 ha         1 DH1       0.054500
     39 H6           0.2830    -0.5220    -1.9540 ha         1 DH1       0.141000
     40 H511         2.5260    -0.3230    -2.4380 ha         1 DH1       0.091000
     41 H512         3.2880     1.2230    -2.1710 ha         1 DH1       0.091000
     42 H2           5.2650     1.3270    -0.9410 ha         1 DH1       0.153000
     43 HN21         7.4260    -1.2980     1.9420 ha         1 DH1       0.222500
     44 HN22         6.4050    -2.6390     2.2200 ha         1 DH1       0.222500
     45 HN41         2.4270    -3.0300     0.3080 ha         1 DH1       0.227000
     46 HN42         1.6960    -1.7930    -0.6000 ha         1 DH1       0.227000
@<TRIPOS>BOND
     1     1     2 1   
     2     1    26 1   
     3     1    27 1   
     4     1    28 1   
     5     2     3 1   
     6     3     4 ar  
     7     3    16 ar  
     8     4     5 ar  
     9     4    29 1   
    10     5     6 ar  
    11     5    30 1   
    12     6     7 1   
    13     6    15 ar  
    14     7     8 1   
    15     8     9 1   
    16     8    31 1   
    17     8    32 1   
    18     9    10 1   
    19     9    33 1   
    20     9    34 1   
    21    10    11 1   
    22    10    35 1   
    23    10    36 1   
    24    11    12 1   
    25    11    37 1   
    26    11    38 1   
    27    12    13 1   
    28    12    14 1   
    29    15    16 ar  
    30    15    39 1   
    31    16    17 1   
    32    17    18 1   
    33    17    40 1   
    34    17    41 1   
    35    18    19 ar  
    36    18    24 ar  
    37    19    20 ar  
    38    19    42 1   
    39    20    21 ar  
    40    21    22 1   
    41    21    23 ar  
    42    22    43 1   
    43    22    44 1   
    44    23    24 ar  
    45    24    25 1   
    46    25    45 1   
    47    25    46 1   
@<TRIPOS>SUBSTRUCTURE
     1 DH1         1 TEMP              0 ****  ****    0 ROOT
