@<TRIPOS>MOLECULE
DH2
   34    36     1     0     0
SMALL
No Charge or Current Charge


@<TRIPOS>ATOM
      1 C1          -0.7490     0.3050    -4.5130 ca         1 DH2      -0.321000
      2 C2           0.4040    -0.0430    -3.8070 ca         1 DH2       0.298100
      3 C3           0.4090    -0.0540    -2.4020 ca         1 DH2      -0.420600
      4 C4          -0.7680     0.2950    -1.7200 ca         1 DH2       0.265100
      5 C5          -1.9280     0.6240    -2.4260 ca         1 DH2      -0.247000
      6 C6          -1.9170     0.6330    -3.8210 ca         1 DH2       0.254100
      7 C9           1.6110    -0.4760    -1.6120 c          1 DH2       0.574700
      8 C10          1.5050    -0.4650    -0.0660 c6         1 DH2       0.058300
      9 C11          0.4050     0.5270     0.3810 c6         1 DH2       0.238600
     10 C14          0.0860     0.4370     1.8800 ca         1 DH2      -0.079300
     11 C15          0.3970     1.5130     2.7370 ca         1 DH2      -0.076000
     12 C16          0.1060     1.4380     4.1120 ca         1 DH2      -0.164000
     13 C17         -0.4990     0.2850     4.6390 ca         1 DH2       0.058100
     14 C18         -0.8130    -0.7930     3.7870 ca         1 DH2       0.117100
     15 C19         -0.5240    -0.7180     2.4150 ca         1 DH2      -0.095000
     16 O12         -0.8140     0.3080    -0.3500 os         1 DH2      -0.331100
     17 O13          2.6280    -0.8730    -2.1750 o          1 DH2      -0.580100
     18 O23         -1.4030    -1.9090     4.3060 oh         1 DH2      -0.534100
     19 O24         -0.7830     0.2080     5.9770 oh         1 DH2      -0.556100
     20 O27          2.7880    -0.1700     0.5570 oh         1 DH2      -0.634000
     21 O29         -3.0440     0.9630    -4.5030 oh         1 DH2      -0.518100
     22 O30          1.5140    -0.3820    -4.5040 oh         1 DH2      -0.534100
     23 H1          -0.7300     0.3060    -5.5990 ha         1 DH2       0.137000
     24 HB          -2.8350     0.8820    -1.8880 ha         1 DH2       0.153000
     25 HD           1.1770    -1.4780     0.2050 h1         1 DH2       0.070700
     26 H11          0.7470     1.5470     0.1500 h1         1 DH2       0.070700
     27 H15          0.8670     2.4100     2.3390 ha         1 DH2       0.120000
     28 H16          0.3540     2.2770     4.7580 ha         1 DH2       0.116000
     29 H19         -0.7770    -1.5550     1.7690 ha         1 DH2       0.136000
     30 H23         -1.5070    -1.7350     5.2690 ho         1 DH2       0.483000
     31 H24         -0.4980     1.0430     6.4110 ho         1 DH2       0.477000
     32 H27          3.4760    -0.6330     0.0230 ho         1 DH2       0.469000
     33 HC          -2.8410     0.9140    -5.4600 ho         1 DH2       0.477000
     34 HA           2.1830    -0.6370    -3.8200 ho         1 DH2       0.517000
@<TRIPOS>BOND
     1     1     2 ar  
     2     1     6 ar  
     3     1    23 1   
     4     2     3 ar  
     5     2    22 1   
     6     3     4 ar  
     7     3     7 1   
     8     4     5 ar  
     9     4    16 1   
    10     5     6 ar  
    11     5    24 1   
    12     6    21 1   
    13     7     8 1   
    14     7    17 2   
    15     8     9 1   
    16     8    20 1   
    17     8    25 1   
    18     9    10 1   
    19     9    16 1   
    20     9    26 1   
    21    10    11 ar  
    22    10    15 ar  
    23    11    12 ar  
    24    11    27 1   
    25    12    13 ar  
    26    12    28 1   
    27    13    14 ar  
    28    13    19 1   
    29    14    15 ar  
    30    14    18 1   
    31    15    29 1   
    32    18    30 1   
    33    19    31 1   
    34    20    32 1   
    35    21    33 1   
    36    22    34 1   
@<TRIPOS>SUBSTRUCTURE
     1 DH2         1 TEMP              0 ****  ****    0 ROOT
