@<TRIPOS>MOLECULE
DH2
   34    36     1     0     0
SMALL
bcc


@<TRIPOS>ATOM
      1 C1          -0.7180     0.2240    -4.4710 ca         1 DH2      -0.339000
      2 C2           0.4450    -0.0120    -3.7570 ca         1 DH2       0.298100
      3 C3           0.4360     0.0160    -2.3410 ca         1 DH2      -0.420600
      4 C4          -0.7700     0.3260    -1.6820 ca         1 DH2       0.265100
      5 C5          -1.9320     0.5650    -2.3840 ca         1 DH2      -0.265000
      6 C6          -1.8970     0.4990    -3.7790 ca         1 DH2       0.254100
      7 C9           1.6070    -0.3270    -1.5820 c          1 DH2       0.574700
      8 C10          1.4140    -0.4500    -0.0830 c6         1 DH2       0.035100
      9 C11          0.3900     0.5860     0.3710 c6         1 DH2       0.215400
     10 C14          0.0870     0.4950     1.8360 ca         1 DH2      -0.079300
     11 C15          0.5140     1.4890     2.6990 ca         1 DH2      -0.094000
     12 C16          0.2660     1.3880     4.0640 ca         1 DH2      -0.182000
     13 C17         -0.4180     0.2970     4.5710 ca         1 DH2       0.058100
     14 C18         -0.8590    -0.7120     3.7000 ca         1 DH2       0.117100
     15 C19         -0.6010    -0.6060     2.3460 ca         1 DH2      -0.113000
     16 O12         -0.8310     0.3930    -0.3440 os         1 DH2      -0.307900
     17 O13          2.7030    -0.5580    -2.0880 o          1 DH2      -0.580100
     18 O23         -1.5310    -1.7900     4.1550 oh         1 DH2      -0.495100
     19 O24         -0.7080     0.1200     5.8780 oh         1 DH2      -0.517100
     20 O27          2.5910    -0.2370     0.6270 oh         1 DH2      -0.571800
     21 O29         -3.0450     0.7280    -4.4180 oh         1 DH2      -0.479100
     22 O30          1.5600    -0.2790    -4.4260 oh         1 DH2      -0.495100
     23 H1          -0.7010     0.1940    -5.5530 ha         1 DH2       0.155000
     24 HB          -2.8510     0.8080    -1.8670 ha         1 DH2       0.171000
     25 HD           0.9970    -1.4580     0.0920 h1         1 DH2       0.070700
     26 H11          0.7800     1.5860     0.1400 h1         1 DH2       0.070700
     27 H15          1.0410     2.3540     2.3170 ha         1 DH2       0.138000
     28 H16          0.6050     2.1700     4.7330 ha         1 DH2       0.134000
     29 H19         -0.9510    -1.3980     1.6920 ha         1 DH2       0.154000
     30 H23         -1.6690    -1.7270     5.1080 ho         1 DH2       0.444000
     31 H24         -0.3690     0.8500     6.4090 ho         1 DH2       0.438000
     32 H27          3.2870    -0.7800     0.2390 ho         1 DH2       0.430000
     33 HC          -2.9270     0.6620    -5.3740 ho         1 DH2       0.438000
     34 HA           2.2830    -0.4260    -3.7790 ho         1 DH2       0.478000
@<TRIPOS>BOND
     1     1     2 ar  
     2     1     6 ar  
     3     1    23 1   
     4     2     3 ar  
     5     2    22 1   
     6     3     4 ar  
     7     3     7 1   
     8     4     5 ar  
     9     4    16 1   
    10     5     6 ar  
    11     5    24 1   
    12     6    21 1   
    13     7     8 1   
    14     7    17 2   
    15     8     9 1   
    16     8    20 1   
    17     8    25 1   
    18     9    10 1   
    19     9    16 1   
    20     9    26 1   
    21    10    11 ar  
    22    10    15 ar  
    23    11    12 ar  
    24    11    27 1   
    25    12    13 ar  
    26    12    28 1   
    27    13    14 ar  
    28    13    19 1   
    29    14    15 ar  
    30    14    18 1   
    31    15    29 1   
    32    18    30 1   
    33    19    31 1   
    34    20    32 1   
    35    21    33 1   
    36    22    34 1   
@<TRIPOS>SUBSTRUCTURE
     1 DH2         1 TEMP              0 ****  ****    0 ROOT
