@<TRIPOS>MOLECULE
DH3
   48    49     1     0     0
SMALL
No Charge or Current Charge


@<TRIPOS>ATOM
      1 N4          47.0140     0.8350    11.8060 nv         1 DH3      -1.079900
      2 C4          47.7430    -0.2010    12.2870 ca         1 DH3       0.417900
      3 N3          47.3170    -1.4030    11.8880 nb         1 DH3      -0.334000
      4 C2          48.0130    -2.4480    12.3460 ca         1 DH3       0.394900
      5 N2          47.5850    -3.6650    11.9430 nv         1 DH3      -1.053900
      6 N1          49.0830    -2.4310    13.1500 nb         1 DH3      -0.276000
      7 C6          49.5040    -1.2140    13.5460 ca         1 DH3       0.178900
      8 C5          48.8530    -0.0350    13.1360 ca         1 DH3      -0.297300
      9 C51         49.3840     1.3200    13.6000 c3         1 DH3       0.046200
     10 C1          50.6760     1.6790    12.8760 ca         1 DH3      -0.078300
     11 C11         50.6470     2.0260    11.5160 ca         1 DH3      -0.090000
     12 C52         51.8320     2.3470    10.8310 ca         1 DH3       0.072000
     13 C53         51.7270     2.7230     9.4460 cg         1 DH3      -0.193000
     14 C54         51.6300     3.0400     8.2780 c1         1 DH3      -0.039100
     15 C13         51.5590     3.4260     6.8620 c3         1 DH3      -0.011300
     16 C3          50.8090     4.7580     6.6180 c3         1 DH3      -0.046400
     17 C7          49.2910     4.7100     6.9400 c3         1 DH3      -0.210400
     18 C8          48.6320     6.0520     6.5780 c          1 DH3       0.717000
     19 O10         48.2130     6.2000     5.4410 o          1 DH3      -0.742000
     20 O9          48.6060     6.9290     7.4280 o          1 DH3      -0.742000
     21 C9          53.0800     2.3170    11.5100 ca         1 DH3       0.066100
     22 O5          54.2390     2.6150    10.8180 os         1 DH3      -0.354100
     23 C12         54.7960     1.6460     9.9100 c3         1 DH3       0.150900
     24 C14         53.1070     1.9910    12.9020 ca         1 DH3       0.089100
     25 O4          54.2440     1.9600    13.7000 os         1 DH3      -0.369100
     26 C4B         55.5490     2.4020    13.2830 c3         1 DH3       0.159900
     27 C10         51.9060     1.6670    13.5560 ca         1 DH3      -0.128000
     28 HN41        47.0950     1.7380    12.2620 hn         1 DH3       0.489500
     29 HN42        46.1210     0.6260    11.3670 hn         1 DH3       0.489500
     30 HN21        48.2020    -4.4630    12.0770 hn         1 DH3       0.479500
     31 HN22        46.9260    -3.7170    11.1700 hn         1 DH3       0.479500
     32 H6          50.3770    -1.1850    14.1970 h4         1 DH3       0.029100
     33 H511        49.5550     1.2890    14.6840 hc         1 DH3       0.047200
     34 H512        48.6480     2.1190    13.4550 hc         1 DH3       0.047200
     35 H8          49.6970     2.0440    10.9870 ha         1 DH3       0.141000
     36 H11         51.0770     2.6200     6.2940 hc         1 DH3       0.042200
     37 H12         52.5810     3.5160     6.4770 hc         1 DH3       0.042200
     38 H31         50.9350     5.0330     5.5640 hc         1 DH3       0.046700
     39 H32         51.2830     5.5560     7.2050 hc         1 DH3       0.046700
     40 H71         49.2090     4.5260     8.0190 hc         1 DH3       0.019700
     41 H72         48.8780     3.9030     6.3220 hc         1 DH3       0.019700
     42 H5'1        55.0300     0.7130    10.4390 h1         1 DH3       0.035367
     43 H5'2        55.7240     2.0300     9.4670 h1         1 DH3       0.035367
     44 H5'3        54.1010     1.4140     9.0950 h1         1 DH3       0.035367
     45 H4'1        55.5160     3.4380    12.9230 h1         1 DH3       0.035700
     46 H4'2        55.9500     1.7560    12.4930 h1         1 DH3       0.035700
     47 H4'3        56.2470     2.3620    14.1280 h1         1 DH3       0.035700
     48 H2          51.9350     1.4070    14.6110 ha         1 DH3       0.119000
@<TRIPOS>BOND
     1     1     2 1   
     2     1    28 1   
     3     1    29 1   
     4     2     3 ar  
     5     2     8 ar  
     6     3     4 ar  
     7     4     5 1   
     8     4     6 ar  
     9     5    30 1   
    10     5    31 1   
    11     6     7 ar  
    12     7     8 ar  
    13     7    32 1   
    14     8     9 1   
    15     9    10 1   
    16     9    33 1   
    17     9    34 1   
    18    10    11 ar  
    19    10    27 ar  
    20    11    12 ar  
    21    11    35 1   
    22    12    13 1   
    23    12    21 ar  
    24    13    14 3   
    25    14    15 1   
    26    15    16 1   
    27    15    36 1   
    28    15    37 1   
    29    16    17 1   
    30    16    38 1   
    31    16    39 1   
    32    17    18 1   
    33    17    40 1   
    34    17    41 1   
    35    18    19 1   
    36    18    20 1   
    37    21    22 1   
    38    21    24 ar  
    39    22    23 1   
    40    23    42 1   
    41    23    43 1   
    42    23    44 1   
    43    24    25 1   
    44    24    27 ar  
    45    25    26 1   
    46    26    45 1   
    47    26    46 1   
    48    26    47 1   
    49    27    48 1   
@<TRIPOS>SUBSTRUCTURE
     1 DH3         1 TEMP              0 ****  ****    0 ROOT
