@<TRIPOS>MOLECULE
DH3
   48    49     1     0     0
SMALL
abcg2


@<TRIPOS>ATOM
      1 N4          46.7500     0.4340    14.0110 nv         1 DH3      -1.079900
      2 C4          47.5580    -0.4150    13.3520 ca         1 DH3       0.417900
      3 N3          47.1270    -1.6630    13.1980 nb         1 DH3      -0.334000
      4 C2          47.9050    -2.5020    12.5160 ca         1 DH3       0.394900
      5 N2          47.4680    -3.7830    12.4050 nv         1 DH3      -1.053900
      6 N1          49.0820    -2.2080    11.9690 nb         1 DH3      -0.276000
      7 C6          49.4950    -0.9510    12.1390 ca         1 DH3       0.178900
      8 C5          48.7990     0.0180    12.8210 ca         1 DH3      -0.297300
      9 C51         49.2580     1.4420    13.0030 c3         1 DH3       0.046200
     10 C1          50.5980     1.7320    12.3880 ca         1 DH3      -0.078300
     11 C11         50.6920     2.1910    11.0830 ca         1 DH3      -0.090000
     12 C52         51.9370     2.4300    10.4970 ca         1 DH3       0.072000
     13 C53         52.0220     2.8920     9.1510 cg         1 DH3      -0.193000
     14 C54         52.0470     3.2740     8.0080 c1         1 DH3      -0.039100
     15 C13         52.0490     3.7490     6.6300 c3         1 DH3      -0.011300
     16 C3          51.1560     4.9760     6.4110 c3         1 DH3      -0.046400
     17 C7          49.6950     4.7180     6.7310 c3         1 DH3      -0.210400
     18 C8          48.7450     5.8990     6.4600 c          1 DH3       0.717000
     19 O10         49.1780     6.8460     5.7740 o          1 DH3      -0.742000
     20 O9          47.5970     5.8010     6.9440 o          1 DH3      -0.742000
     21 C9          53.1050     2.2130    11.2350 ca         1 DH3       0.066100
     22 O5          54.3120     2.4640    10.6710 os         1 DH3      -0.354100
     23 C12         54.9360     1.3250    10.0860 c3         1 DH3       0.150900
     24 C14         53.0140     1.7600    12.5540 ca         1 DH3       0.089100
     25 O4          54.1120     1.5050    13.3050 os         1 DH3      -0.369100
     26 C4B         54.9960     2.5890    13.5700 c3         1 DH3       0.159900
     27 C10         51.7650     1.5260    13.1150 ca         1 DH3      -0.128000
     28 HN41        47.0710     1.3370    14.3100 hn         1 DH3       0.489500
     29 HN42        45.9360     0.0680    14.4760 hn         1 DH3       0.489500
     30 HN21        47.8940    -4.3530    11.6940 hn         1 DH3       0.479500
     31 HN22        46.4920    -3.9530    12.5710 hn         1 DH3       0.479500
     32 H6          50.4540    -0.7100    11.6910 h4         1 DH3       0.029100
     33 H511        49.3000     1.6790    14.0720 hc         1 DH3       0.047200
     34 H512        48.5140     2.1220    12.5740 hc         1 DH3       0.047200
     35 H8          49.7940     2.3620    10.5030 ha         1 DH3       0.141000
     36 H11         51.7220     2.9340     5.9770 hc         1 DH3       0.042200
     37 H12         53.0760     3.9810     6.3370 hc         1 DH3       0.042200
     38 H31         51.2620     5.2810     5.3690 hc         1 DH3       0.046700
     39 H32         51.5350     5.8040     7.0140 hc         1 DH3       0.046700
     40 H71         49.5850     4.4130     7.7760 hc         1 DH3       0.019700
     41 H72         49.3410     3.8610     6.1440 hc         1 DH3       0.019700
     42 H5'1        55.0850     0.5270    10.8160 h1         1 DH3       0.035367
     43 H5'2        55.9050     1.6480     9.7130 h1         1 DH3       0.035367
     44 H5'3        54.3470     0.9370     9.2510 h1         1 DH3       0.035367
     45 H4'1        54.4550     3.5310    13.6790 h1         1 DH3       0.035700
     46 H4'2        55.7510     2.7040    12.7920 h1         1 DH3       0.035700
     47 H4'3        55.4960     2.3660    14.5110 h1         1 DH3       0.035700
     48 H2          51.7120     1.1730    14.1390 ha         1 DH3       0.119000
@<TRIPOS>BOND
     1     1     2 1   
     2     1    28 1   
     3     1    29 1   
     4     2     3 ar  
     5     2     8 ar  
     6     3     4 ar  
     7     4     5 1   
     8     4     6 ar  
     9     5    30 1   
    10     5    31 1   
    11     6     7 ar  
    12     7     8 ar  
    13     7    32 1   
    14     8     9 1   
    15     9    10 1   
    16     9    33 1   
    17     9    34 1   
    18    10    11 ar  
    19    10    27 ar  
    20    11    12 ar  
    21    11    35 1   
    22    12    13 1   
    23    12    21 ar  
    24    13    14 3   
    25    14    15 1   
    26    15    16 1   
    27    15    36 1   
    28    15    37 1   
    29    16    17 1   
    30    16    38 1   
    31    16    39 1   
    32    17    18 1   
    33    17    40 1   
    34    17    41 1   
    35    18    19 1   
    36    18    20 1   
    37    21    22 1   
    38    21    24 ar  
    39    22    23 1   
    40    23    42 1   
    41    23    43 1   
    42    23    44 1   
    43    24    25 1   
    44    24    27 ar  
    45    25    26 1   
    46    26    45 1   
    47    26    46 1   
    48    26    47 1   
    49    27    48 1   
@<TRIPOS>SUBSTRUCTURE
     1 DH3         1 TEMP              0 ****  ****    0 ROOT
