@<TRIPOS>MOLECULE
DH5
   48    50     1     0     0
SMALL
No Charge or Current Charge


@<TRIPOS>ATOM
      1 CBB          4.9850     0.4630    -0.8180 c3         1 DH5      -0.054800
      2 CAY          3.9150     1.1760     0.0020 ca         1 DH5      -0.040300
      3 CAV          2.6120     1.3120    -0.5180 ca         1 DH5      -0.090000
      4 CAZ          4.2050     1.7040     1.2790 ca         1 DH5      -0.013900
      5 Br1          5.9580     1.5530     2.0460 br         1 DH5      -0.090100
      6 CBA          3.2040     2.3590     2.0160 ca         1 DH5      -0.079000
      7 CAX          1.9080     2.4890     1.4900 ca         1 DH5      -0.119000
      8 CAW          1.6040     1.9620     0.2200 ca         1 DH5      -0.114300
      9 CAT          0.1940     2.0940    -0.3500 c3         1 DH5       0.133300
     10 NAO         -0.3910     0.8020    -0.8170 n          1 DH5      -0.334000
     11 CAP         -0.8170    -0.1780     0.0740 cc         1 DH5       0.413600
     12 NAU         -0.5790     0.0480     1.3890 nv         1 DH5      -0.943000
     13 CAN         -0.5380     0.6090    -2.1990 c          1 DH5       0.627000
     14 OAM         -0.1730     1.4150    -3.0390 o          1 DH5      -0.555000
     15 NAF         -1.1200    -0.5470    -2.5850 ns         1 DH5      -0.465500
     16 CAG         -1.5940    -1.5520    -1.8160 c          1 DH5       0.604200
     17 OAA         -2.1140    -2.5330    -2.3240 o          1 DH5      -0.541000
     18 CAH         -1.4240    -1.3460    -0.3510 cd         1 DH5      -0.265200
     19 NAI         -1.8910    -2.3140     0.5980 nh         1 DH5      -0.578300
     20 CAB         -1.4210    -3.7100     0.5170 c3         1 DH5       0.193100
     21 SAJ         -3.2420    -2.0590     1.6340 sy         1 DH5       1.153600
     22 OAQ         -4.0700    -3.2710     1.5800 o          1 DH5      -0.546500
     23 OAC         -2.7080    -1.5470     2.9020 o          1 DH5      -0.546500
     24 CAK         -4.0850    -0.7320     0.7470 ca         1 DH5      -0.280500
     25 CAR         -4.8530    -1.0360    -0.3950 ca         1 DH5      -0.007500
     26 CAS         -5.4820    -0.0050    -1.1140 ca         1 DH5      -0.127500
     27 CAL         -5.3460     1.3310    -0.6980 ca         1 DH5      -0.052000
     28 CAE         -4.5780     1.6350     0.4380 ca         1 DH5      -0.127500
     29 CAD         -3.9470     0.6090     1.1620 ca         1 DH5      -0.007500
     30 HBB1         5.8290     1.1300    -1.0290 hc         1 DH5       0.055367
     31 HBB2         5.3710    -0.4140    -0.2850 hc         1 DH5       0.055367
     32 HBB3         4.5960     0.1140    -1.7820 hc         1 DH5       0.055367
     33 HAV          2.3820     0.9090    -1.5020 ha         1 DH5       0.127000
     34 HBA          3.4330     2.7680     2.9980 ha         1 DH5       0.135000
     35 HAX          1.1450     3.0030     2.0710 ha         1 DH5       0.119000
     36 HAT1        -0.4750     2.5200     0.4110 h1         1 DH5       0.087700
     37 HAT2         0.2180     2.8300    -1.1630 h1         1 DH5       0.087700
     38 HAU1         0.2610     0.5620     1.6270 hn         1 DH5       0.510000
     39 HAU2        -0.8200    -0.7180     2.0100 hn         1 DH5       0.510000
     40 HAF         -1.2240    -0.6720    -3.5790 hn         1 DH5       0.347500
     41 HAB1        -1.3170    -4.1450     1.5190 h1         1 DH5       0.053367
     42 HAB2        -2.1280    -4.3210    -0.0590 h1         1 DH5       0.053367
     43 HAB3        -0.4430    -3.7560     0.0220 h1         1 DH5       0.053367
     44 HAR         -4.9540    -2.0660    -0.7340 ha         1 DH5       0.130500
     45 HAD         -3.3470     0.8610     2.0340 ha         1 DH5       0.130500
     46 HAS         -6.0720    -0.2410    -1.9960 ha         1 DH5       0.115500
     47 HAL         -5.8320     2.1270    -1.2570 ha         1 DH5       0.113000
     48 HAE         -4.4690     2.6690     0.7580 ha         1 DH5       0.115500
@<TRIPOS>BOND
     1     1     2 1   
     2     1    30 1   
     3     1    31 1   
     4     1    32 1   
     5     2     3 ar  
     6     2     4 ar  
     7     3     8 ar  
     8     3    33 1   
     9     4     5 1   
    10     4     6 ar  
    11     6     7 ar  
    12     6    34 1   
    13     7     8 ar  
    14     7    35 1   
    15     8     9 1   
    16     9    10 1   
    17     9    36 1   
    18     9    37 1   
    19    10    11 1   
    20    10    13 1   
    21    11    12 1   
    22    11    18 2   
    23    12    38 1   
    24    12    39 1   
    25    13    14 2   
    26    13    15 1   
    27    15    16 1   
    28    15    40 1   
    29    16    17 2   
    30    16    18 1   
    31    18    19 1   
    32    19    20 1   
    33    19    21 1   
    34    20    41 1   
    35    20    42 1   
    36    20    43 1   
    37    21    22 2   
    38    21    23 2   
    39    21    24 1   
    40    24    25 ar  
    41    24    29 ar  
    42    25    26 ar  
    43    25    44 1   
    44    26    27 ar  
    45    26    46 1   
    46    27    28 ar  
    47    27    47 1   
    48    28    29 ar  
    49    28    48 1   
    50    29    45 1   
@<TRIPOS>SUBSTRUCTURE
     1 DH5         1 TEMP              0 ****  ****    0 ROOT
