@<TRIPOS>MOLECULE
DH5
   48    50     1     0     0
SMALL
abcg2


@<TRIPOS>ATOM
      1 CBB          4.9700    -0.0170    -1.2990 c3         1 DH5      -0.054800
      2 CAY          4.3090     0.6790    -0.1490 ca         1 DH5      -0.040300
      3 CAV          3.0210     1.1890    -0.2900 ca         1 DH5      -0.090000
      4 CAZ          4.9300     0.8610     1.0890 ca         1 DH5      -0.013900
      5 BR1          6.6790     0.2000     1.3730 br         1 DH5      -0.090100
      6 CBA          4.3020     1.5160     2.1350 ca         1 DH5      -0.079000
      7 CAX          3.0170     2.0080     1.9580 ca         1 DH5      -0.119000
      8 CAW          2.3640     1.8470     0.7430 ca         1 DH5      -0.114300
      9 CAT          0.9810     2.4160     0.5490 c3         1 DH5       0.133300
     10 NAO          0.0590     1.4940    -0.1100 n          1 DH5      -0.334000
     11 CAP         -0.5000     0.4510     0.5890 cc         1 DH5       0.413600
     12 NAU         -0.1050     0.2610     1.8470 nv         1 DH5      -0.943000
     13 CAN         -0.2550     1.7340    -1.4410 c          1 DH5       0.627000
     14 OAM          0.2590     2.6340    -2.0730 o          1 DH5      -0.555000
     15 NAF         -1.1690     0.8900    -1.9870 ns         1 DH5      -0.465500
     16 CAG         -1.8150    -0.1770    -1.3690 c          1 DH5       0.604200
     17 OAA         -2.5800    -0.8750    -2.0130 o          1 DH5      -0.541000
     18 CAH         -1.4660    -0.3500     0.0020 cd         1 DH5      -0.265200
     19 NAI         -1.9910    -1.4270     0.7470 nh         1 DH5      -0.578300
     20 CAB         -1.7300    -2.7930     0.2950 c3         1 DH5       0.193100
     21 SAJ         -3.4170    -1.1260     1.5570 sy         1 DH5       1.153600
     22 OAQ         -3.7240    -2.3300     2.3130 o          1 DH5      -0.546500
     23 OAC         -3.2440     0.1360     2.2560 o          1 DH5      -0.546500
     24 CAK         -4.6680    -0.8990     0.3300 ca         1 DH5      -0.280500
     25 CAR         -5.3220    -2.0110    -0.1820 ca         1 DH5      -0.007500
     26 CAS         -6.2660    -1.8320    -1.1800 ca         1 DH5      -0.127500
     27 CAL         -6.5490    -0.5570    -1.6540 ca         1 DH5      -0.052000
     28 CAE         -5.8920     0.5460    -1.1260 ca         1 DH5      -0.127500
     29 CAD         -4.9460     0.3820    -0.1270 ca         1 DH5      -0.007500
     30 HBB1         5.8870     0.4910    -1.6010 hc         1 DH5       0.055367
     31 HBB2         5.2360    -1.0450    -1.0480 hc         1 DH5       0.055367
     32 HBB3         4.3060    -0.0480    -2.1610 hc         1 DH5       0.055367
     33 HAV          2.5330     1.0600    -1.2480 ha         1 DH5       0.127000
     34 HBA          4.7970     1.6450     3.0880 ha         1 DH5       0.135000
     35 HAX          2.5290     2.5180     2.7800 ha         1 DH5       0.119000
     36 HAT1         0.5480     2.7190     1.5040 h1         1 DH5       0.087700
     37 HAT2         1.0310     3.3150    -0.0600 h1         1 DH5       0.087700
     38 HAU1         0.7560     0.6340     2.2080 hn         1 DH5       0.510000
     39 HAU2        -0.4720    -0.5410     2.3330 hn         1 DH5       0.510000
     40 HAF         -1.3840     1.0490    -2.9630 hn         1 DH5       0.347500
     41 HAB1        -1.8250    -3.4900     1.1230 h1         1 DH5       0.053367
     42 HAB2        -2.3820    -3.1050    -0.5210 h1         1 DH5       0.053367
     43 HAB3        -0.7010    -2.8250    -0.0540 h1         1 DH5       0.053367
     44 HAR         -5.1090    -3.0040     0.1900 ha         1 DH5       0.130500
     45 HAD         -4.4400     1.2430     0.2870 ha         1 DH5       0.130500
     46 HAS         -6.7880    -2.6900    -1.5840 ha         1 DH5       0.115500
     47 HAL         -7.2880    -0.4250    -2.4330 ha         1 DH5       0.113000
     48 HAE         -6.1190     1.5400    -1.4900 ha         1 DH5       0.115500
@<TRIPOS>BOND
     1     1     2 1   
     2     1    30 1   
     3     1    31 1   
     4     1    32 1   
     5     2     3 ar  
     6     2     4 ar  
     7     3     8 ar  
     8     3    33 1   
     9     4     5 1   
    10     4     6 ar  
    11     6     7 ar  
    12     6    34 1   
    13     7     8 ar  
    14     7    35 1   
    15     8     9 1   
    16     9    10 1   
    17     9    36 1   
    18     9    37 1   
    19    10    11 1   
    20    10    13 1   
    21    11    12 1   
    22    11    18 2   
    23    12    38 1   
    24    12    39 1   
    25    13    14 2   
    26    13    15 1   
    27    15    16 1   
    28    15    40 1   
    29    16    17 2   
    30    16    18 1   
    31    18    19 1   
    32    19    20 1   
    33    19    21 1   
    34    20    41 1   
    35    20    42 1   
    36    20    43 1   
    37    21    22 2   
    38    21    23 2   
    39    21    24 1   
    40    24    25 ar  
    41    24    29 ar  
    42    25    26 ar  
    43    25    44 1   
    44    26    27 ar  
    45    26    46 1   
    46    27    28 ar  
    47    27    47 1   
    48    28    29 ar  
    49    28    48 1   
    50    29    45 1   
@<TRIPOS>SUBSTRUCTURE
     1 DH5         1 TEMP              0 ****  ****    0 ROOT
