@<TRIPOS>MOLECULE
DH6
   20    20     1     0     0
SMALL
bcc


@<TRIPOS>ATOM
      1 C1           2.9580     0.0480     0.0320 c          1 DH6       0.676300
      2 N1           3.8690    -0.9420     0.0420 nt         1 DH6      -0.676000
      3 O1           3.2700     1.2310     0.0210 o          1 DH6      -0.610100
      4 C2           1.5500    -0.4150     0.0400 ce         1 DH6      -0.253200
      5 C3           0.5420     0.4590     0.0140 cf         1 DH6      -0.027200
      6 C4          -0.8860     0.1590     0.0160 ca         1 DH6      -0.074800
      7 C5          -1.7920     1.2210     0.0080 ca         1 DH6      -0.104500
      8 C6          -3.1590     0.9930     0.0110 ca         1 DH6      -0.133500
      9 C7          -3.6460    -0.3040     0.0220 ca         1 DH6      -0.114000
     10 C8          -2.7560    -1.3730     0.0300 ca         1 DH6      -0.133500
     11 C9          -1.3930    -1.1440     0.0270 ca         1 DH6      -0.104500
     12 HN1          4.8510    -0.7290     0.0260 hn         1 DH6       0.311000
     13 HN1A         3.6150    -1.9110     0.0300 hn         1 DH6       0.311000
     14 H2           1.3710    -1.4830     0.0690 ha         1 DH6       0.125000
     15 H3           0.7970     1.5140    -0.0120 ha         1 DH6       0.147000
     16 H5          -1.4230     2.2390     0.0030 ha         1 DH6       0.131500
     17 H6          -3.8430     1.8310     0.0050 ha         1 DH6       0.133000
     18 H7          -4.7120    -0.4850     0.0250 ha         1 DH6       0.132000
     19 H8          -3.1300    -2.3880     0.0390 ha         1 DH6       0.133000
     20 H9          -0.7180    -1.9900     0.0320 ha         1 DH6       0.131500
@<TRIPOS>BOND
     1     1     2 1   
     2     1     3 2   
     3     1     4 1   
     4     2    12 1   
     5     2    13 1   
     6     4     5 2   
     7     4    14 1   
     8     5     6 1   
     9     5    15 1   
    10     6     7 ar  
    11     6    11 ar  
    12     7     8 ar  
    13     7    16 1   
    14     8     9 ar  
    15     8    17 1   
    16     9    10 ar  
    17     9    18 1   
    18    10    11 ar  
    19    10    19 1   
    20    11    20 1   
@<TRIPOS>SUBSTRUCTURE
     1 DH6         1 TEMP              0 ****  ****    0 ROOT
