@<TRIPOS>MOLECULE
DH6
   20    20     1     0     0
SMALL
No Charge or Current Charge


@<TRIPOS>ATOM
      1 C1           3.0260     0.0310     0.0260 c          1 DH6       0.609300
      2 N1           3.9240    -0.9720     0.0360 nt         1 DH6      -0.609000
      3 O1           3.3920     1.1930     0.0150 o          1 DH6      -0.610100
      4 C2           1.6020    -0.3880     0.0280 ce         1 DH6      -0.303200
      5 C3           0.5420     0.4750     0.0190 cf         1 DH6      -0.077200
      6 C4          -0.9070     0.1820     0.0200 ca         1 DH6      -0.074800
      7 C5          -1.8280     1.2500     0.0090 ca         1 DH6      -0.086500
      8 C6          -3.2120     1.0030     0.0090 ca         1 DH6      -0.115500
      9 C7          -3.6910    -0.3170     0.0210 ca         1 DH6      -0.096000
     10 C8          -2.7840    -1.3880     0.0330 ca         1 DH6      -0.115500
     11 C9          -1.3990    -1.1420     0.0320 ca         1 DH6      -0.086500
     12 HN1          4.9080    -0.7510     0.0350 hn         1 DH6       0.311000
     13 HN1A         3.6120    -1.9310     0.0450 hn         1 DH6       0.311000
     14 H2           1.4260    -1.4600     0.0380 ha         1 DH6       0.175000
     15 H3           0.7760     1.5430     0.0090 ha         1 DH6       0.197000
     16 H5          -1.4740     2.2790    -0.0010 ha         1 DH6       0.113500
     17 H6          -3.9130     1.8350     0.0010 ha         1 DH6       0.115000
     18 H7          -4.7620    -0.5090     0.0220 ha         1 DH6       0.114000
     19 H8          -3.1520    -2.4120     0.0420 ha         1 DH6       0.115000
     20 H9          -0.7190    -1.9890     0.0410 ha         1 DH6       0.113500
@<TRIPOS>BOND
     1     1     2 1   
     2     1     3 2   
     3     1     4 1   
     4     2    12 1   
     5     2    13 1   
     6     4     5 2   
     7     4    14 1   
     8     5     6 1   
     9     5    15 1   
    10     6     7 ar  
    11     6    11 ar  
    12     7     8 ar  
    13     7    16 1   
    14     8     9 ar  
    15     8    17 1   
    16     9    10 ar  
    17     9    18 1   
    18    10    11 ar  
    19    10    19 1   
    20    11    20 1   
@<TRIPOS>SUBSTRUCTURE
     1 DH6         1 TEMP              0 ****  ****    0 ROOT
