@<TRIPOS>MOLECULE
DH7
   76    75     1     0     0
SMALL
No Charge or Current Charge


@<TRIPOS>ATOM
      1 C1          -8.1350     2.6580     1.9920 c3         1 DH7      -0.055900
      2 C2          -8.0310     5.1740     2.1730 c3         1 DH7      -0.055900
      3 C3           7.7700     2.6070    -1.9440 c3         1 DH7      -0.055900
      4 C4          -3.6180    -4.7140    -0.0120 c3         1 DH7      -0.044900
      5 C5           4.4790    -5.4670     0.2200 c3         1 DH7      -0.044900
      6 C6          -2.7020     1.3040    -0.4030 c3         1 DH7      -0.055900
      7 C7           2.5780     0.2860     0.2510 c3         1 DH7      -0.055900
      8 C8          -0.0590    -3.4070    -0.1420 ce         1 DH7      -0.183100
      9 C9           0.7800    -4.5860     0.1000 ce         1 DH7      -0.183100
     10 C10         -1.4620    -3.4540     0.0210 c1         1 DH7      -0.038800
     11 C11          2.1860    -4.4930     0.0050 c1         1 DH7      -0.038800
     12 C12         -5.9310     3.8990     1.6540 c2         1 DH7      -0.224200
     13 C13          5.3480     3.3860    -1.7690 c2         1 DH7      -0.224200
     14 C14         -4.7700    -0.1850    -0.5070 c2         1 DH7      -0.224200
     15 C15          4.8840    -0.7660     0.5350 c2         1 DH7      -0.224200
     16 C16         -5.0380     2.6970     1.4060 c3         1 DH7      -0.035700
     17 C17          4.7000     2.0380    -1.5080 c3         1 DH7      -0.035700
     18 C18         -4.0730    -1.4990    -0.8100 c3         1 DH7      -0.036200
     19 C19          4.4320    -2.1770     0.8680 c3         1 DH7      -0.036200
     20 C20         -3.5740    -2.2060     0.4680 c3         1 DH7      -0.028700
     21 C21          4.1440    -3.0120    -0.3980 c3         1 DH7      -0.028700
     22 C22         -5.0290     2.2740    -0.0800 c3         1 DH7      -0.038200
     23 C23          4.6890     1.6780    -0.0060 c3         1 DH7      -0.038200
     24 C24         -7.2520     3.8970     1.9180 c2         1 DH7      -0.111400
     25 C25          6.6550     3.6420    -1.9700 c2         1 DH7      -0.111400
     26 C26         -2.7740    -3.4640     0.1690 c2         1 DH7      -0.124500
     27 C27          3.4960    -4.3500    -0.0820 c2         1 DH7      -0.124500
     28 C28         -4.2000     1.0240    -0.3390 c2         1 DH7      -0.109400
     29 C29          4.1030     0.3010     0.2760 c2         1 DH7      -0.109400
     30 H1          -8.9700     2.7300     1.2850 hc         1 DH7       0.038367
     31 H2          -7.5960     1.7350     1.7540 hc         1 DH7       0.038367
     32 H3          -8.5600     2.5400     2.9970 hc         1 DH7       0.038367
     33 H4          -8.4880     5.1660     3.1700 hc         1 DH7       0.038367
     34 H5          -7.3900     6.0620     2.1120 hc         1 DH7       0.038367
     35 H6          -8.8350     5.3000     1.4370 hc         1 DH7       0.038367
     36 H7           7.4160     1.6020    -1.6900 hc         1 DH7       0.038367
     37 H8           8.2670     2.5420    -2.9200 hc         1 DH7       0.038367
     38 H9           8.5330     2.8720    -1.2020 hc         1 DH7       0.038367
     39 H10         -4.2010    -4.9310     0.8910 hc         1 DH7       0.042367
     40 H11         -4.3220    -4.6010    -0.8460 hc         1 DH7       0.042367
     41 H12         -3.0000    -5.5960    -0.2230 hc         1 DH7       0.042367
     42 H13          5.1480    -5.6450    -0.6310 hc         1 DH7       0.042367
     43 H14          5.1000    -5.2240     1.0900 hc         1 DH7       0.042367
     44 H15          3.9660    -6.4130     0.4360 hc         1 DH7       0.042367
     45 H16         -2.1070     0.4010    -0.5780 hc         1 DH7       0.039700
     46 H17         -2.4680     2.0080    -1.2110 hc         1 DH7       0.039700
     47 H18         -2.3390     1.7430     0.5340 hc         1 DH7       0.039700
     48 H19          2.1580    -0.7030     0.4600 hc         1 DH7       0.039700
     49 H20          2.1660     0.9760     0.9970 hc         1 DH7       0.039700
     50 H21          2.1930     0.5900    -0.7290 hc         1 DH7       0.039700
     51 H22          0.4220    -2.4720    -0.4360 ha         1 DH7       0.190000
     52 H23          0.3070    -5.5270     0.3900 ha         1 DH7       0.190000
     53 H24         -5.3910     4.8470     1.6180 ha         1 DH7       0.164000
     54 H25          4.6280     4.2060    -1.8040 ha         1 DH7       0.164000
     55 H26         -5.8560    -0.2810    -0.4430 ha         1 DH7       0.165000
     56 H27          5.9690    -0.6530     0.5310 ha         1 DH7       0.165000
     57 H28         -4.0150     2.9310     1.7280 hc         1 DH7       0.045200
     58 H29         -5.3540     1.8440     2.0190 hc         1 DH7       0.045200
     59 H30          3.6720     2.0480    -1.8900 hc         1 DH7       0.045200
     60 H31          5.2150     1.2440    -2.0620 hc         1 DH7       0.045200
     61 H32         -4.7580    -2.1650    -1.3490 hc         1 DH7       0.045700
     62 H33         -3.2250    -1.3370    -1.4870 hc         1 DH7       0.045700
     63 H34          5.1980    -2.6830     1.4690 hc         1 DH7       0.045700
     64 H35          3.5330    -2.1520     1.4960 hc         1 DH7       0.045700
     65 H36         -2.9570    -1.4990     1.0380 hc         1 DH7       0.050200
     66 H37         -4.4320    -2.4380     1.1120 hc         1 DH7       0.050200
     67 H38          3.4850    -2.4290    -1.0550 hc         1 DH7       0.050200
     68 H39          5.0760    -3.1520    -0.9600 hc         1 DH7       0.050200
     69 H40         -6.0680     2.1000    -0.3880 hc         1 DH7       0.045200
     70 H41         -4.6710     3.1090    -0.6970 hc         1 DH7       0.045200
     71 H42          5.7230     1.7220     0.3590 hc         1 DH7       0.045200
     72 H43          4.1430     2.4490     0.5510 hc         1 DH7       0.045200
     73 C30          7.1750     5.0410    -2.2480 c3         1 DH7      -0.055900
     74 H44          7.6800     5.0900    -3.2200 hc         1 DH7       0.038367
     75 H45          6.3660     5.7820    -2.2610 hc         1 DH7       0.038367
     76 H46          7.8940     5.3550    -1.4810 hc         1 DH7       0.038367
@<TRIPOS>BOND
     1     1    24 1   
     2     1    30 1   
     3     1    31 1   
     4     1    32 1   
     5     2    24 1   
     6     2    33 1   
     7     2    34 1   
     8     2    35 1   
     9     3    25 1   
    10     3    36 1   
    11     3    37 1   
    12     3    38 1   
    13     4    26 1   
    14     4    39 1   
    15     4    40 1   
    16     4    41 1   
    17     5    27 1   
    18     5    42 1   
    19     5    43 1   
    20     5    44 1   
    21     6    28 1   
    22     6    45 1   
    23     6    46 1   
    24     6    47 1   
    25     7    29 1   
    26     7    48 1   
    27     7    49 1   
    28     7    50 1   
    29     8     9 1   
    30     8    10 2   
    31     8    51 1   
    32     9    11 2   
    33     9    52 1   
    34    10    26 2   
    35    11    27 2   
    36    12    16 1   
    37    12    24 2   
    38    12    53 1   
    39    13    17 1   
    40    13    25 2   
    41    13    54 1   
    42    14    18 1   
    43    14    28 2   
    44    14    55 1   
    45    15    19 1   
    46    15    29 2   
    47    15    56 1   
    48    16    22 1   
    49    16    57 1   
    50    16    58 1   
    51    17    23 1   
    52    17    59 1   
    53    17    60 1   
    54    18    20 1   
    55    18    61 1   
    56    18    62 1   
    57    19    21 1   
    58    19    63 1   
    59    19    64 1   
    60    20    26 1   
    61    20    65 1   
    62    20    66 1   
    63    21    27 1   
    64    21    67 1   
    65    21    68 1   
    66    22    28 1   
    67    22    69 1   
    68    22    70 1   
    69    23    29 1   
    70    23    71 1   
    71    23    72 1   
    72    25    73 1   
    73    73    74 1   
    74    73    75 1   
    75    73    76 1   
@<TRIPOS>SUBSTRUCTURE
     1 DH7         1 TEMP              0 ****  ****    0 ROOT
