@<TRIPOS>MOLECULE
DH7
   76    75     1     0     0
SMALL
abcg2


@<TRIPOS>ATOM
      1 C1          -6.3370     3.2860     2.7880 c3         1 DH7      -0.055900
      2 C2          -7.1380     5.4080     1.6830 c3         1 DH7      -0.055900
      3 C3           6.3510     3.2810    -2.7900 c3         1 DH7      -0.055900
      4 C4          -3.9160    -5.0780     0.3570 c3         1 DH7      -0.044900
      5 C5           3.8860    -5.1150    -0.3700 c3         1 DH7      -0.044900
      6 C6          -4.0860     0.4920    -2.1790 c3         1 DH7      -0.055900
      7 C7           4.0380     0.4550     2.1150 c3         1 DH7      -0.055900
      8 C8          -0.5530    -3.9330    -0.4970 ce         1 DH7      -0.183100
      9 C9           0.5320    -3.9430     0.4870 ce         1 DH7      -0.183100
     10 C10         -1.8250    -3.8990    -0.1770 c1         1 DH7      -0.038800
     11 C11          1.8040    -3.9200     0.1680 c1         1 DH7      -0.038800
     12 C12         -5.8410     3.7630     0.3720 c2         1 DH7      -0.224200
     13 C13          5.8810     3.7200    -0.3610 c2         1 DH7      -0.224200
     14 C14         -5.4570    -0.8900    -0.5970 c2         1 DH7      -0.224200
     15 C15          5.4640    -0.9440     0.6000 c2         1 DH7      -0.224200
     16 C16         -5.0840     2.5110     0.0550 c3         1 DH7      -0.035700
     17 C17          5.1070     2.4750    -0.0590 c3         1 DH7      -0.035700
     18 C18         -4.7670    -2.2010    -0.8180 c3         1 DH7      -0.036200
     19 C19          4.7620    -2.2490     0.8150 c3         1 DH7      -0.036200
     20 C20         -3.7770    -2.5060     0.3150 c3         1 DH7      -0.028700
     21 C21          3.7680    -2.5420    -0.3190 c3         1 DH7      -0.028700
     22 C22         -5.9290     1.5250    -0.7670 c3         1 DH7      -0.038200
     23 C23          5.9340     1.4730     0.7620 c3         1 DH7      -0.038200
     24 C24         -6.3930     4.1130     1.5380 c2         1 DH7      -0.111400
     25 C25          6.4280     4.0830    -1.5250 c2         1 DH7      -0.111400
     26 C26         -3.0870    -3.8390     0.1490 c2         1 DH7      -0.124500
     27 C27          3.0670    -3.8710    -0.1570 c2         1 DH7      -0.124500
     28 C28         -5.1700     0.2860    -1.1620 c2         1 DH7      -0.109400
     29 C29          5.1590     0.2390     1.1410 c2         1 DH7      -0.109400
     30 H1          -7.3470     3.0510     3.1340 hc         1 DH7       0.038367
     31 H2          -5.8030     2.3460     2.6670 hc         1 DH7       0.038367
     32 H3          -5.8560     3.8410     3.5980 hc         1 DH7       0.038367
     33 H4          -6.6840     6.0370     2.4540 hc         1 DH7       0.038367
     34 H5          -7.1590     5.9770     0.7540 hc         1 DH7       0.038367
     35 H6          -8.1710     5.2340     1.9960 hc         1 DH7       0.038367
     36 H7           5.8100     2.3430    -2.6820 hc         1 DH7       0.038367
     37 H8           5.8670     3.8560    -3.5840 hc         1 DH7       0.038367
     38 H9           7.3550     3.0430    -3.1510 hc         1 DH7       0.038367
     39 H10         -4.3840    -5.0590     1.3440 hc         1 DH7       0.042367
     40 H11         -4.7220    -5.1380    -0.3770 hc         1 DH7       0.042367
     41 H12         -3.3210    -5.9860     0.2770 hc         1 DH7       0.042367
     42 H13          4.3540    -5.0970    -1.3570 hc         1 DH7       0.042367
     43 H14          4.6910    -5.1850     0.3640 hc         1 DH7       0.042367
     44 H15          3.2830    -6.0190    -0.2930 hc         1 DH7       0.042367
     45 H16         -3.6680    -0.4390    -2.5590 hc         1 DH7       0.039700
     46 H17         -4.4600     1.0630    -3.0320 hc         1 DH7       0.039700
     47 H18         -3.2580     1.0700    -1.7610 hc         1 DH7       0.039700
     48 H19          3.6250    -0.4730     2.5070 hc         1 DH7       0.039700
     49 H20          4.3720     1.0570     2.9630 hc         1 DH7       0.039700
     50 H21          3.2150     1.0030     1.6510 hc         1 DH7       0.039700
     51 H22         -0.2700    -3.9420    -1.5460 ha         1 DH7       0.190000
     52 H23          0.2490    -3.9580     1.5370 ha         1 DH7       0.190000
     53 H24         -5.9700     4.4450    -0.4660 ha         1 DH7       0.164000
     54 H25          6.0260     4.3840     0.4880 ha         1 DH7       0.164000
     55 H26         -6.2530    -0.9090     0.1450 ha         1 DH7       0.165000
     56 H27          6.2840    -0.9730    -0.1150 ha         1 DH7       0.165000
     57 H28         -4.1840     2.7790    -0.5070 hc         1 DH7       0.045200
     58 H29         -4.7400     2.0080     0.9600 hc         1 DH7       0.045200
     59 H30          4.2060     2.7480     0.4990 hc         1 DH7       0.045200
     60 H31          4.7630     1.9820    -0.9700 hc         1 DH7       0.045200
     61 H32         -5.5180    -2.9940    -0.8730 hc         1 DH7       0.045700
     62 H33         -4.2290    -2.2170    -1.7680 hc         1 DH7       0.045700
     63 H34          5.5050    -3.0500     0.8660 hc         1 DH7       0.045700
     64 H35          4.2240    -2.2650     1.7650 hc         1 DH7       0.045700
     65 H36         -3.0350    -1.7060     0.3620 hc         1 DH7       0.050200
     66 H37         -4.3100    -2.5010     1.2720 hc         1 DH7       0.050200
     67 H38          3.0330    -1.7360    -0.3620 hc         1 DH7       0.050200
     68 H39          4.3000    -2.5380    -1.2760 hc         1 DH7       0.050200
     69 H40         -6.8110     1.2520    -0.1810 hc         1 DH7       0.045200
     70 H41         -6.2940     2.0350    -1.6660 hc         1 DH7       0.045200
     71 H42          6.8190     1.1960     0.1840 hc         1 DH7       0.045200
     72 H43          6.2940     1.9730     1.6690 hc         1 DH7       0.045200
     73 C30          7.1900     5.3700    -1.6520 c3         1 DH7      -0.055900
     74 H44          6.7370     6.0210    -2.4040 hc         1 DH7       0.038367
     75 H45          7.2280     5.9200    -0.7110 hc         1 DH7       0.038367
     76 H46          8.2170     5.1890    -1.9790 hc         1 DH7       0.038367
@<TRIPOS>BOND
     1     1    24 1   
     2     1    30 1   
     3     1    31 1   
     4     1    32 1   
     5     2    24 1   
     6     2    33 1   
     7     2    34 1   
     8     2    35 1   
     9     3    25 1   
    10     3    36 1   
    11     3    37 1   
    12     3    38 1   
    13     4    26 1   
    14     4    39 1   
    15     4    40 1   
    16     4    41 1   
    17     5    27 1   
    18     5    42 1   
    19     5    43 1   
    20     5    44 1   
    21     6    28 1   
    22     6    45 1   
    23     6    46 1   
    24     6    47 1   
    25     7    29 1   
    26     7    48 1   
    27     7    49 1   
    28     7    50 1   
    29     8     9 1   
    30     8    10 2   
    31     8    51 1   
    32     9    11 2   
    33     9    52 1   
    34    10    26 2   
    35    11    27 2   
    36    12    16 1   
    37    12    24 2   
    38    12    53 1   
    39    13    17 1   
    40    13    25 2   
    41    13    54 1   
    42    14    18 1   
    43    14    28 2   
    44    14    55 1   
    45    15    19 1   
    46    15    29 2   
    47    15    56 1   
    48    16    22 1   
    49    16    57 1   
    50    16    58 1   
    51    17    23 1   
    52    17    59 1   
    53    17    60 1   
    54    18    20 1   
    55    18    61 1   
    56    18    62 1   
    57    19    21 1   
    58    19    63 1   
    59    19    64 1   
    60    20    26 1   
    61    20    65 1   
    62    20    66 1   
    63    21    27 1   
    64    21    67 1   
    65    21    68 1   
    66    22    28 1   
    67    22    69 1   
    68    22    70 1   
    69    23    29 1   
    70    23    71 1   
    71    23    72 1   
    72    25    73 1   
    73    73    74 1   
    74    73    75 1   
    75    73    76 1   
@<TRIPOS>SUBSTRUCTURE
     1 DH7         1 TEMP              0 ****  ****    0 ROOT
