@<TRIPOS>MOLECULE
DH9
   90    89     1     0     0
SMALL
abcg2


@<TRIPOS>ATOM
      1 C22         10.9850    -4.1160     0.5120 c3         1 DH9      -0.086100
      2 C21          9.8190    -3.3820     1.1590 c3         1 DH9      -0.076400
      3 C20          8.6180    -3.2490     0.2310 c3         1 DH9      -0.076400
      4 C19          7.4430    -2.5100     0.8600 c3         1 DH9      -0.074400
      5 C18          6.2460    -2.3880    -0.0750 c3         1 DH9      -0.074400
      6 C17          5.0800    -1.6330     0.5530 c3         1 DH9      -0.042400
      7 C2           3.8060    -1.6190    -0.3000 c3         1 DH9      -0.227700
      8 C1           4.0740    -0.9570    -1.6640 c          1 DH9       0.714000
      9 O1           4.1050     0.3060    -1.6690 o          1 DH9      -0.726500
     10 O2           4.2600    -1.6800    -2.6540 o          1 DH9      -0.726500
     11 C3           2.6500    -0.9210     0.4390 c3         1 DH9       0.205300
     12 O3           2.9210     0.4430     0.6480 oh         1 DH9      -0.711000
     13 C4           1.3250    -1.1610    -0.2900 c3         1 DH9      -0.118400
     14 C5           0.1080    -0.5270     0.3660 c3         1 DH9       0.190300
     15 O4           0.1100     0.8810     0.0620 os         1 DH9      -0.443100
     16 C23          0.2170     1.7900     1.0120 c          1 DH9       0.605100
     17 O5           0.2320     1.5690     2.1940 o          1 DH9      -0.493000
     18 C24          0.2280     3.1880     0.3970 c3         1 DH9       0.064700
     19 C26          1.3020     3.3430    -0.6910 c3         1 DH9      -0.076400
     20 C27          1.4170     4.7520    -1.2710 c3         1 DH9      -0.055700
     21 C28          2.4950     4.7630    -2.3510 c3         1 DH9      -0.087100
     22 C29          0.0950     5.2640    -1.8330 c3         1 DH9      -0.087100
     23 N1           0.2740     4.1970     1.4250 ns         1 DH9      -0.507900
     24 C25          1.3230     4.4490     2.2180 c          1 DH9       0.601900
     25 O6           2.4230     3.9340     2.1390 o          1 DH9      -0.564100
     26 C6          -1.1960    -1.1070    -0.1630 c3         1 DH9      -0.090400
     27 C7          -2.4550    -0.5190     0.4630 c3         1 DH9      -0.072400
     28 C8          -3.7220    -1.1640    -0.0850 c3         1 DH9      -0.075400
     29 C9          -5.0020    -0.5930     0.5110 c3         1 DH9      -0.073400
     30 C10         -6.2600    -1.2190    -0.0770 c3         1 DH9      -0.075400
     31 C11         -7.5510    -0.6520     0.4990 c3         1 DH9      -0.073400
     32 C12         -8.8000    -1.2740    -0.1130 c3         1 DH9      -0.074400
     33 C13        -10.0990    -0.7090     0.4480 c3         1 DH9      -0.074400
     34 C14        -11.3420    -1.3310    -0.1760 c3         1 DH9      -0.075400
     35 C15        -12.6440    -0.7670     0.3780 c3         1 DH9      -0.075400
     36 C16        -13.8790    -1.3930    -0.2540 c3         1 DH9      -0.088100
     37 H221        11.8390    -4.1900     1.1850 hc         1 DH9       0.024367
     38 H222        10.7010    -5.1300     0.2240 hc         1 DH9       0.024367
     39 H223        11.3180    -3.6000    -0.3910 hc         1 DH9       0.024367
     40 H211         9.5140    -3.9050     2.0710 hc         1 DH9       0.031700
     41 H212        10.1430    -2.3860     1.4760 hc         1 DH9       0.031700
     42 H201         8.9230    -2.7290    -0.6840 hc         1 DH9       0.036700
     43 H202         8.2910    -4.2460    -0.0840 hc         1 DH9       0.036700
     44 H191         7.1390    -3.0260     1.7780 hc         1 DH9       0.027700
     45 H192         7.7670    -1.5100     1.1690 hc         1 DH9       0.027700
     46 H181         6.5620    -1.8900    -0.9960 hc         1 DH9       0.048700
     47 H182         5.9150    -3.3900    -0.3710 hc         1 DH9       0.048700
     48 H171         4.8390    -2.0950     1.5180 hc         1 DH9       0.027200
     49 H172         5.3890    -0.6090     0.7780 hc         1 DH9       0.027200
     50 H2           3.5120    -2.6600    -0.4720 hc         1 DH9       0.034700
     51 H3           2.5560    -1.3850     1.4310 h1         1 DH9       0.018700
     52 HO3          3.3390     0.7200    -0.2010 ho         1 DH9       0.507000
     53 H4'1         1.3850    -0.8230    -1.3310 hc         1 DH9       0.056700
     54 H4'2         1.1580    -2.2410    -0.3260 hc         1 DH9       0.056700
     55 H5           0.1530    -0.6640     1.4500 h1         1 DH9       0.063700
     56 H24         -0.7480     3.3030    -0.0830 h1         1 DH9       0.050700
     57 H261         2.2700     3.0320    -0.3000 hc         1 DH9       0.087700
     58 H262         1.0560     2.6490    -1.4980 hc         1 DH9       0.087700
     59 H27          1.7360     5.4320    -0.4740 hc         1 DH9       0.041700
     60 H281         2.2090     4.1280    -3.1930 hc         1 DH9       0.029200
     61 H282         2.6580     5.7700    -2.7380 hc         1 DH9       0.029200
     62 H283         3.4490     4.3950    -1.9690 hc         1 DH9       0.029200
     63 H291        -0.6780     5.3560    -1.0690 hc         1 DH9       0.029200
     64 H292         0.2180     6.2520    -2.2790 hc         1 DH9       0.029200
     65 H293        -0.2840     4.5970    -2.6120 hc         1 DH9       0.029200
     66 HN1         -0.5870     4.6650     1.6550 hn         1 DH9       0.301500
     67 H25          1.0830     5.2160     2.9710 h5         1 DH9      -0.016800
     68 H6'1        -1.2320    -0.9880    -1.2510 hc         1 DH9       0.046200
     69 H6'2        -1.1720    -2.1840     0.0230 hc         1 DH9       0.046200
     70 H7'1        -2.4180    -0.6460     1.5500 hc         1 DH9       0.040200
     71 H7'2        -2.4990     0.5590     0.2810 hc         1 DH9       0.040200
     72 H8'1        -3.7460    -1.0390    -1.1740 hc         1 DH9       0.035700
     73 H8'2        -3.6880    -2.2440     0.0920 hc         1 DH9       0.035700
     74 H9'1        -4.9950    -0.7350     1.5970 hc         1 DH9       0.036200
     75 H9'2        -5.0270     0.4910     0.3490 hc         1 DH9       0.036200
     76 H101        -6.2580    -1.0790    -1.1640 hc         1 DH9       0.036200
     77 H102        -6.2360    -2.3030     0.0850 hc         1 DH9       0.036200
     78 H111        -7.5640    -0.8010     1.5840 hc         1 DH9       0.035700
     79 H112        -7.5730     0.4320     0.3440 hc         1 DH9       0.035700
     80 H121        -8.7810    -1.1280    -1.1990 hc         1 DH9       0.036200
     81 H122        -8.7790    -2.3580     0.0430 hc         1 DH9       0.036200
     82 H131       -10.1230    -0.8590     1.5330 hc         1 DH9       0.035700
     83 H132       -10.1200     0.3760     0.2940 hc         1 DH9       0.035700
     84 H141       -11.3160    -1.1820    -1.2620 hc         1 DH9       0.036700
     85 H142       -11.3220    -2.4150    -0.0220 hc         1 DH9       0.036700
     86 H151       -12.6710    -0.9160     1.4620 hc         1 DH9       0.035700
     87 H152       -12.6640     0.3170     0.2240 hc         1 DH9       0.035700
     88 H161       -13.8960    -1.2300    -1.3330 hc         1 DH9       0.029700
     89 H162       -13.9040    -2.4720    -0.0860 hc         1 DH9       0.029700
     90 H163       -14.7980    -0.9740     0.1580 hc         1 DH9       0.029700
@<TRIPOS>BOND
     1     1     2 1   
     2     1    37 1   
     3     1    38 1   
     4     1    39 1   
     5     2     3 1   
     6     2    40 1   
     7     2    41 1   
     8     3     4 1   
     9     3    42 1   
    10     3    43 1   
    11     4     5 1   
    12     4    44 1   
    13     4    45 1   
    14     5     6 1   
    15     5    46 1   
    16     5    47 1   
    17     6     7 1   
    18     6    48 1   
    19     6    49 1   
    20     7     8 1   
    21     7    11 1   
    22     7    50 1   
    23     8     9 1   
    24     8    10 1   
    25    11    12 1   
    26    11    13 1   
    27    11    51 1   
    28    12    52 1   
    29    13    14 1   
    30    13    53 1   
    31    13    54 1   
    32    14    15 1   
    33    14    26 1   
    34    14    55 1   
    35    15    16 1   
    36    16    17 2   
    37    16    18 1   
    38    18    19 1   
    39    18    23 1   
    40    18    56 1   
    41    19    20 1   
    42    19    57 1   
    43    19    58 1   
    44    20    21 1   
    45    20    22 1   
    46    20    59 1   
    47    21    60 1   
    48    21    61 1   
    49    21    62 1   
    50    22    63 1   
    51    22    64 1   
    52    22    65 1   
    53    23    24 1   
    54    23    66 1   
    55    24    25 2   
    56    24    67 1   
    57    26    27 1   
    58    26    68 1   
    59    26    69 1   
    60    27    28 1   
    61    27    70 1   
    62    27    71 1   
    63    28    29 1   
    64    28    72 1   
    65    28    73 1   
    66    29    30 1   
    67    29    74 1   
    68    29    75 1   
    69    30    31 1   
    70    30    76 1   
    71    30    77 1   
    72    31    32 1   
    73    31    78 1   
    74    31    79 1   
    75    32    33 1   
    76    32    80 1   
    77    32    81 1   
    78    33    34 1   
    79    33    82 1   
    80    33    83 1   
    81    34    35 1   
    82    34    84 1   
    83    34    85 1   
    84    35    36 1   
    85    35    86 1   
    86    35    87 1   
    87    36    88 1   
    88    36    89 1   
    89    36    90 1   
@<TRIPOS>SUBSTRUCTURE
     1 DH9         1 TEMP              0 ****  ****    0 ROOT
