@<TRIPOS>MOLECULE
DH9
   90    89     1     0     0
SMALL
No Charge or Current Charge


@<TRIPOS>ATOM
      1 C22         11.0170    -4.1860     1.1810 c3         1 DH9      -0.086100
      2 C21          9.9210    -3.1340     1.4350 c3         1 DH9      -0.076400
      3 C20          8.6390    -3.3830     0.6110 c3         1 DH9      -0.076400
      4 C19          7.5400    -2.3280     0.8670 c3         1 DH9      -0.074400
      5 C18          6.2580    -2.5780     0.0420 c3         1 DH9      -0.074400
      6 C17          5.1590    -1.5210     0.3000 c3         1 DH9      -0.042400
      7 C2           3.8370    -1.7790    -0.4800 c3         1 DH9      -0.227700
      8 C1           4.0640    -1.7750    -2.0050 c          1 DH9       0.714000
      9 O1           4.3720    -0.7130    -2.5280 o          1 DH9      -0.726500
     10 O2           3.8850    -2.8120    -2.6250 o          1 DH9      -0.726500
     11 C3           2.7120    -0.7910    -0.0780 c3         1 DH9       0.205300
     12 O3           3.0980     0.5040    -0.5300 oh         1 DH9      -0.711000
     13 C4           1.3340    -1.1680    -0.6830 c3         1 DH9      -0.118400
     14 C5           0.0910    -0.5760     0.0370 c3         1 DH9       0.190300
     15 O4           0.0820     0.8560    -0.1240 os         1 DH9      -0.443100
     16 C23          0.5870     1.6530     0.8770 c          1 DH9       0.605100
     17 O5           0.8820     1.2450     1.9960 o          1 DH9      -0.493000
     18 C24          0.4480     3.1600     0.4980 c3         1 DH9       0.064700
     19 C26          1.4570     3.5750    -0.6110 c3         1 DH9      -0.076400
     20 C27          1.3760     5.0560    -1.0800 c3         1 DH9      -0.055700
     21 C28          2.4970     5.3730    -2.0960 c3         1 DH9      -0.087100
     22 C29         -0.0100     5.4240    -1.6610 c3         1 DH9      -0.087100
     23 N1           0.4530     4.0440     1.6940 ns         1 DH9      -0.507900
     24 C25          1.5510     4.3650     2.4680 c          1 DH9       0.601900
     25 O6           2.6800     3.9450     2.2580 o          1 DH9      -0.564100
     26 C6          -1.2330    -1.0980    -0.5700 c3         1 DH9      -0.090400
     27 C7          -2.4990    -0.5930     0.1640 c3         1 DH9      -0.072400
     28 C8          -3.8070    -1.1590    -0.4310 c3         1 DH9      -0.075400
     29 C9          -5.0710    -0.6530     0.2990 c3         1 DH9      -0.073400
     30 C10         -6.3790    -1.2180    -0.2950 c3         1 DH9      -0.075400
     31 C11         -7.6420    -0.7120     0.4340 c3         1 DH9      -0.073400
     32 C12         -8.9510    -1.2770    -0.1600 c3         1 DH9      -0.074400
     33 C13        -10.2150    -0.7710     0.5690 c3         1 DH9      -0.074400
     34 C14        -11.5230    -1.3360    -0.0260 c3         1 DH9      -0.075400
     35 C15        -12.7870    -0.8290     0.7040 c3         1 DH9      -0.075400
     36 C16        -14.0920    -1.3930     0.1110 c3         1 DH9      -0.088100
     37 H221        11.9040    -3.9670     1.7860 hc         1 DH9       0.024367
     38 H222        10.6610    -5.1890     1.4440 hc         1 DH9       0.024367
     39 H223        11.3140    -4.1880     0.1250 hc         1 DH9       0.024367
     40 H211         9.6710    -3.1310     2.5040 hc         1 DH9       0.031700
     41 H212        10.3190    -2.1390     1.1970 hc         1 DH9       0.031700
     42 H201         8.8930    -3.3870    -0.4570 hc         1 DH9       0.036700
     43 H202         8.2450    -4.3790     0.8500 hc         1 DH9       0.036700
     44 H191         7.2870    -2.3250     1.9340 hc         1 DH9       0.027700
     45 H192         7.9340    -1.3330     0.6270 hc         1 DH9       0.027700
     46 H181         6.5170    -2.5840    -1.0240 hc         1 DH9       0.048700
     47 H182         5.8640    -3.5730     0.2820 hc         1 DH9       0.048700
     48 H171         4.9370    -1.5030     1.3750 hc         1 DH9       0.027200
     49 H172         5.5540    -0.5290     0.0450 hc         1 DH9       0.027200
     50 H2           3.5090    -2.7860    -0.1940 hc         1 DH9       0.034700
     51 H3           2.6210    -0.8020     1.0170 h1         1 DH9       0.018700
     52 HO3          3.6380     0.3100    -1.3440 ho         1 DH9       0.507000
     53 H4'1         1.3050    -0.8950    -1.7450 hc         1 DH9       0.056700
     54 H4'2         1.2350    -2.2590    -0.6480 hc         1 DH9       0.056700
     55 H5           0.1110    -0.8730     1.0940 h1         1 DH9       0.063700
     56 H24         -0.5550     3.2450     0.0620 h1         1 DH9       0.050700
     57 H261         2.4750     3.3650    -0.2610 hc         1 DH9       0.087700
     58 H262         1.3050     2.9220    -1.4800 hc         1 DH9       0.087700
     59 H27          1.5490     5.7000    -0.2090 hc         1 DH9       0.041700
     60 H281         2.3860     4.7680    -3.0040 hc         1 DH9       0.029200
     61 H282         2.4720     6.4310    -2.3840 hc         1 DH9       0.029200
     62 H283         3.4830     5.1660    -1.6640 hc         1 DH9       0.029200
     63 H291        -0.7950     5.3280    -0.9020 hc         1 DH9       0.029200
     64 H292        -0.0180     6.4630    -2.0130 hc         1 DH9       0.029200
     65 H293        -0.2650     4.7740    -2.5070 hc         1 DH9       0.029200
     66 HN1         -0.4270     4.4540     1.9860 hn         1 DH9       0.301500
     67 H25          1.2910     5.0440     3.3010 h5         1 DH9      -0.016800
     68 H6'1        -1.2860    -0.8100    -1.6270 hc         1 DH9       0.046200
     69 H6'2        -1.2260    -2.1950    -0.5420 hc         1 DH9       0.046200
     70 H7'1        -2.4350    -0.8700     1.2240 hc         1 DH9       0.040200
     71 H7'2        -2.5340     0.5030     0.1210 hc         1 DH9       0.040200
     72 H8'1        -3.8690    -0.8830    -1.4910 hc         1 DH9       0.035700
     73 H8'2        -3.7790    -2.2550    -0.3850 hc         1 DH9       0.035700
     74 H9'1        -5.0080    -0.9280     1.3600 hc         1 DH9       0.036200
     75 H9'2        -5.0980     0.4430     0.2540 hc         1 DH9       0.036200
     76 H101        -6.4410    -0.9430    -1.3560 hc         1 DH9       0.036200
     77 H102        -6.3510    -2.3140    -0.2490 hc         1 DH9       0.036200
     78 H111        -7.5810    -0.9870     1.4950 hc         1 DH9       0.035700
     79 H112        -7.6700     0.3840     0.3880 hc         1 DH9       0.035700
     80 H121        -9.0130    -1.0020    -1.2210 hc         1 DH9       0.036200
     81 H122        -8.9240    -2.3730    -0.1140 hc         1 DH9       0.036200
     82 H131       -10.1530    -1.0460     1.6300 hc         1 DH9       0.035700
     83 H132       -10.2420     0.3250     0.5230 hc         1 DH9       0.035700
     84 H141       -11.5850    -1.0610    -1.0860 hc         1 DH9       0.036700
     85 H142       -11.4960    -2.4320     0.0200 hc         1 DH9       0.036700
     86 H151       -12.7290    -1.1040     1.7640 hc         1 DH9       0.035700
     87 H152       -12.8190     0.2660     0.6580 hc         1 DH9       0.035700
     88 H161       -14.1970    -1.1050    -0.9420 hc         1 DH9       0.029700
     89 H162       -14.1070    -2.4880     0.1740 hc         1 DH9       0.029700
     90 H163       -14.9600    -1.0070     0.6600 hc         1 DH9       0.029700
@<TRIPOS>BOND
     1     1     2 1   
     2     1    37 1   
     3     1    38 1   
     4     1    39 1   
     5     2     3 1   
     6     2    40 1   
     7     2    41 1   
     8     3     4 1   
     9     3    42 1   
    10     3    43 1   
    11     4     5 1   
    12     4    44 1   
    13     4    45 1   
    14     5     6 1   
    15     5    46 1   
    16     5    47 1   
    17     6     7 1   
    18     6    48 1   
    19     6    49 1   
    20     7     8 1   
    21     7    11 1   
    22     7    50 1   
    23     8     9 1   
    24     8    10 1   
    25    11    12 1   
    26    11    13 1   
    27    11    51 1   
    28    12    52 1   
    29    13    14 1   
    30    13    53 1   
    31    13    54 1   
    32    14    15 1   
    33    14    26 1   
    34    14    55 1   
    35    15    16 1   
    36    16    17 2   
    37    16    18 1   
    38    18    19 1   
    39    18    23 1   
    40    18    56 1   
    41    19    20 1   
    42    19    57 1   
    43    19    58 1   
    44    20    21 1   
    45    20    22 1   
    46    20    59 1   
    47    21    60 1   
    48    21    61 1   
    49    21    62 1   
    50    22    63 1   
    51    22    64 1   
    52    22    65 1   
    53    23    24 1   
    54    23    66 1   
    55    24    25 2   
    56    24    67 1   
    57    26    27 1   
    58    26    68 1   
    59    26    69 1   
    60    27    28 1   
    61    27    70 1   
    62    27    71 1   
    63    28    29 1   
    64    28    72 1   
    65    28    73 1   
    66    29    30 1   
    67    29    74 1   
    68    29    75 1   
    69    30    31 1   
    70    30    76 1   
    71    30    77 1   
    72    31    32 1   
    73    31    78 1   
    74    31    79 1   
    75    32    33 1   
    76    32    80 1   
    77    32    81 1   
    78    33    34 1   
    79    33    82 1   
    80    33    83 1   
    81    34    35 1   
    82    34    84 1   
    83    34    85 1   
    84    35    36 1   
    85    35    86 1   
    86    35    87 1   
    87    36    88 1   
    88    36    89 1   
    89    36    90 1   
@<TRIPOS>SUBSTRUCTURE
     1 DH9         1 TEMP              0 ****  ****    0 ROOT
