@<TRIPOS>MOLECULE
DHA
   10     9     1     0     0
SMALL
bcc


@<TRIPOS>ATOM
      1 N            7.4430    23.2630    10.3030 nv         1 DHA      -0.834600
      2 CA           6.1290    22.8720    10.4560 ce         1 DHA       0.011800
      3 CB           5.4190    23.0300    11.5840 c2         1 DHA      -0.368000
      4 C            5.5210    22.2040     9.2130 c          1 DHA       0.922800
      5 O            4.4450    21.6010     9.3580 o          1 DHA      -0.830300
      6 OXT          6.1730    22.3490     8.1590 o          1 DHA      -0.830300
      7 H            7.6990    23.4100     9.3400 hn         1 DHA       0.371800
      8 H2           7.7680    23.9920    10.9180 hn         1 DHA       0.371800
      9 HB1          4.4090    22.6560    11.6550 ha         1 DHA       0.092000
     10 HB2          5.8280    23.5260    12.4570 ha         1 DHA       0.092000
@<TRIPOS>BOND
     1     1     2 1   
     2     1     7 1   
     3     1     8 1   
     4     2     3 2   
     5     2     4 1   
     6     3     9 1   
     7     3    10 1   
     8     4     5 1   
     9     4     6 1   
@<TRIPOS>SUBSTRUCTURE
     1 DHA         1 TEMP              0 ****  ****    0 ROOT
