@<TRIPOS>MOLECULE
DHA
   10     9     1     0     0
SMALL
No Charge or Current Charge


@<TRIPOS>ATOM
      1 N            7.3760    23.4620    10.2860 nv         1 DHA      -0.834600
      2 CA           6.0880    22.9010    10.4090 ce         1 DHA       0.011800
      3 CB           5.4440    23.0150    11.5930 c2         1 DHA      -0.368000
      4 C            5.4720    22.1750     9.1640 c          1 DHA       0.922800
      5 O            4.3520    21.6770     9.2470 o          1 DHA      -0.830300
      6 OXT          6.1250    22.1210     8.1230 o          1 DHA      -0.830300
      7 H            7.8540    23.4270     9.3870 hn         1 DHA       0.371800
      8 H2           7.7840    24.0000    11.0470 hn         1 DHA       0.371800
      9 HB1          4.4480    22.6010    11.7420 ha         1 DHA       0.092000
     10 HB2          5.8930    23.5250    12.4450 ha         1 DHA       0.092000
@<TRIPOS>BOND
     1     1     2 1   
     2     1     7 1   
     3     1     8 1   
     4     2     3 2   
     5     2     4 1   
     6     3     9 1   
     7     3    10 1   
     8     4     5 1   
     9     4     6 1   
@<TRIPOS>SUBSTRUCTURE
     1 DHA         1 TEMP              0 ****  ****    0 ROOT
