@<TRIPOS>MOLECULE
DHB
   16    16     1     0     0
SMALL
abcg2


@<TRIPOS>ATOM
      1 C1           0.1040     0.0180     0.8930 ca         1 DHB      -0.120600
      2 C2          -0.9500    -0.0270    -0.0140 ca         1 DHB      -0.123000
      3 C3          -0.7250    -0.0360    -1.3840 ca         1 DHB       0.046100
      4 O3          -1.7570    -0.0450    -2.2760 oh         1 DHB      -0.562100
      5 C4           0.5840     0.0060    -1.8700 ca         1 DHB       0.046100
      6 O4           0.8200     0.0420    -3.2150 oh         1 DHB      -0.562100
      7 C5           1.6390     0.0630    -0.9680 ca         1 DHB      -0.147000
      8 C6           1.4030     0.0690     0.3990 ca         1 DHB      -0.089000
      9 C           -0.1680     0.0210     2.3920 c          1 DHB       0.712600
     10 O1          -1.3630    -0.0280     2.7440 o          1 DHB      -0.719000
     11 O2           0.8280     0.0540     3.1400 o          1 DHB      -0.719000
     12 H2          -1.9690    -0.0560     0.3540 ha         1 DHB       0.134000
     13 HO3         -2.3160    -0.8150    -2.1270 ho         1 DHB       0.440000
     14 HO4          0.7930    -0.8520    -3.5750 ho         1 DHB       0.434000
     15 H5           2.6530     0.1030    -1.3500 ha         1 DHB       0.098000
     16 H6           2.2390     0.1120     1.0850 ha         1 DHB       0.131000
@<TRIPOS>BOND
     1     1     2 ar  
     2     1     8 ar  
     3     1     9 1   
     4     2     3 ar  
     5     2    12 1   
     6     3     4 1   
     7     3     5 ar  
     8     4    13 1   
     9     5     6 1   
    10     5     7 ar  
    11     6    14 1   
    12     7     8 ar  
    13     7    15 1   
    14     8    16 1   
    15     9    10 1   
    16     9    11 1   
@<TRIPOS>SUBSTRUCTURE
     1 DHB         1 TEMP              0 ****  ****    0 ROOT
