@<TRIPOS>MOLECULE
DHB
   16    16     1     0     0
SMALL
No Charge or Current Charge


@<TRIPOS>ATOM
      1 C1           0.1090    -0.0010     0.8860 ca         1 DHB      -0.120600
      2 C2          -0.9130    -0.1910    -0.0770 ca         1 DHB      -0.123000
      3 C3          -0.6060    -0.2480    -1.4480 ca         1 DHB       0.046100
      4 O3          -1.6030    -0.4330    -2.3710 oh         1 DHB      -0.562100
      5 C4           0.7290    -0.1150    -1.8760 ca         1 DHB       0.046100
      6 O4           1.0220    -0.1710    -3.2070 oh         1 DHB      -0.562100
      7 C5           1.7520     0.0740    -0.9360 ca         1 DHB      -0.147000
      8 C6           1.4460     0.1310     0.4350 ca         1 DHB      -0.089000
      9 C           -0.2190     0.0620     2.3720 c          1 DHB       0.712600
     10 O1          -1.3860    -0.0570     2.7190 o          1 DHB      -0.719000
     11 O2           0.6950     0.2270     3.1680 o          1 DHB      -0.719000
     12 H2          -1.9470    -0.2950     0.2450 ha         1 DHB       0.134000
     13 HO3         -2.4620    -0.5050    -1.8990 ho         1 DHB       0.440000
     14 HO4          0.1640    -0.3070    -3.6680 ho         1 DHB       0.434000
     15 H5           2.7830     0.1770    -1.2660 ha         1 DHB       0.098000
     16 H6           2.2540     0.2780     1.1490 ha         1 DHB       0.131000
@<TRIPOS>BOND
     1     1     2 ar  
     2     1     8 ar  
     3     1     9 1   
     4     2     3 ar  
     5     2    12 1   
     6     3     4 1   
     7     3     5 ar  
     8     4    13 1   
     9     5     6 1   
    10     5     7 ar  
    11     6    14 1   
    12     7     8 ar  
    13     7    15 1   
    14     8    16 1   
    15     9    10 1   
    16     9    11 1   
@<TRIPOS>SUBSTRUCTURE
     1 DHB         1 TEMP              0 ****  ****    0 ROOT
