@<TRIPOS>MOLECULE
DHC
   20    20     1     0     0
SMALL
No Charge or Current Charge


@<TRIPOS>ATOM
      1 C1           5.5740    -2.7510    -2.1110 c          1 DHC       0.695200
      2 O1           6.4000    -3.3080    -1.4040 o          1 DHC      -0.723000
      3 C2           4.3750    -2.1240    -1.4700 ce         1 DHC      -0.212200
      4 C3           4.0940    -2.1070    -0.1280 cf         1 DHC      -0.239200
      5 C7           2.9440    -1.5170     0.5870 ca         1 DHC       0.009200
      6 C8           2.8730    -1.6280     1.9900 ca         1 DHC      -0.132000
      7 C9           1.7900    -1.0760     2.6920 ca         1 DHC       0.113100
      8 C4           0.7630    -0.4030     2.0030 ca         1 DHC       0.003100
      9 C5           0.8250    -0.2870     0.6060 ca         1 DHC      -0.159000
     10 C6           1.9100    -0.8410    -0.0980 ca         1 DHC      -0.122000
     11 O4          -0.2920     0.1350     2.6910 oh         1 DHC      -0.571100
     12 O3           1.7210    -1.1840     4.0490 oh         1 DHC      -0.546100
     13 O2           5.6700    -2.6750    -3.3250 o          1 DHC      -0.723000
     14 HC2          3.6910    -1.6500    -2.1680 ha         1 DHC       0.142000
     15 HC3          4.8150    -2.5980     0.5290 ha         1 DHC       0.193000
     16 H2           3.6560    -2.1440     2.5390 ha         1 DHC       0.130000
     17 H5           0.0390     0.2300     0.0590 ha         1 DHC       0.096000
     18 H6           1.9380    -0.7390    -1.1790 ha         1 DHC       0.120000
     19 H4          -0.9040     0.5610     2.0500 ho         1 DHC       0.461000
     20 H3           0.8880    -0.7280     4.3060 ho         1 DHC       0.468000
@<TRIPOS>BOND
     1     1     2 1   
     2     1     3 1   
     3     1    13 1   
     4     3     4 2   
     5     3    14 1   
     6     4     5 1   
     7     4    15 1   
     8     5     6 ar  
     9     5    10 ar  
    10     6     7 ar  
    11     6    16 1   
    12     7     8 ar  
    13     7    12 1   
    14     8     9 ar  
    15     8    11 1   
    16     9    10 ar  
    17     9    17 1   
    18    10    18 1   
    19    11    19 1   
    20    12    20 1   
@<TRIPOS>SUBSTRUCTURE
     1 DHC         1 TEMP              0 ****  ****    0 ROOT
