@<TRIPOS>MOLECULE
DHC
   20    20     1     0     0
SMALL
abcg2


@<TRIPOS>ATOM
      1 C1           5.5610    -2.7700    -2.0390 c          1 DHC       0.695200
      2 O1           6.3950    -3.2670    -1.2550 o          1 DHC      -0.723000
      3 C2           4.3270    -2.1300    -1.4470 ce         1 DHC      -0.212200
      4 C3           4.0950    -2.0750    -0.1330 cf         1 DHC      -0.239200
      5 C7           2.9390    -1.4830     0.5420 ca         1 DHC       0.009200
      6 C8           2.8470    -1.6040     1.9330 ca         1 DHC      -0.132000
      7 C9           1.7800    -1.0780     2.6400 ca         1 DHC       0.113100
      8 C4           0.7650    -0.4040     1.9510 ca         1 DHC       0.003100
      9 C5           0.8480    -0.2740     0.5720 ca         1 DHC      -0.159000
     10 C6           1.9210    -0.8040    -0.1270 ca         1 DHC      -0.122000
     11 O4          -0.2480     0.0840     2.7000 oh         1 DHC      -0.571100
     12 O3           1.7460    -1.2280     3.9820 oh         1 DHC      -0.546100
     13 O2           5.6350    -2.7420    -3.2860 o          1 DHC      -0.723000
     14 HC2          3.6170    -1.7070    -2.1520 ha         1 DHC       0.142000
     15 HC3          4.8370    -2.5220     0.5230 ha         1 DHC       0.193000
     16 H2           3.6260    -2.1230     2.4800 ha         1 DHC       0.130000
     17 H5           0.0640     0.2510     0.0370 ha         1 DHC       0.096000
     18 H6           1.9540    -0.6780    -1.2010 ha         1 DHC       0.120000
     19 H4          -0.8930     0.5440     2.1520 ho         1 DHC       0.461000
     20 H3           0.9510    -0.8240     4.3480 ho         1 DHC       0.468000
@<TRIPOS>BOND
     1     1     2 1   
     2     1     3 1   
     3     1    13 1   
     4     3     4 2   
     5     3    14 1   
     6     4     5 1   
     7     4    15 1   
     8     5     6 ar  
     9     5    10 ar  
    10     6     7 ar  
    11     6    16 1   
    12     7     8 ar  
    13     7    12 1   
    14     8     9 ar  
    15     8    11 1   
    16     9    10 ar  
    17     9    17 1   
    18    10    18 1   
    19    11    19 1   
    20    12    20 1   
@<TRIPOS>SUBSTRUCTURE
     1 DHC         1 TEMP              0 ****  ****    0 ROOT
