@<TRIPOS>MOLECULE
DHD
   13    12     1     0     0
SMALL
bcc


@<TRIPOS>ATOM
      1 C1           0.3740     0.0840     2.6050 c          1 DHD       0.849600
      2 C2          -0.2990    -0.2670     1.2440 c          1 DHD       0.443100
      3 C3           0.4980     0.0070    -0.0050 c3         1 DHD      -0.297400
      4 C4          -0.3090     0.2680    -1.2500 c          1 DHD       0.443100
      5 C5           0.3320    -0.1330    -2.6120 c          1 DHD       0.849600
      6 O11          1.5120     0.5790     2.5290 o          1 DHD      -0.829300
      7 O12         -0.2990    -0.1650     3.6130 o          1 DHD      -0.829300
      8 O51         -0.3610     0.0850    -3.6150 o          1 DHD      -0.829300
      9 O52          1.4740    -0.6200    -2.5440 o          1 DHD      -0.829300
     10 O4          -1.3830     0.8190    -1.2140 o          1 DHD      -0.567600
     11 O2          -1.3890    -0.7850     1.2120 o          1 DHD      -0.567600
     12 H31          1.1650     0.8590     0.1520 hc         1 DHD       0.082200
     13 H32          1.1800    -0.8330    -0.1620 hc         1 DHD       0.082200
@<TRIPOS>BOND
     1     1     2 1   
     2     1     6 1   
     3     1     7 1   
     4     2     3 1   
     5     2    11 2   
     6     3     4 1   
     7     3    12 1   
     8     3    13 1   
     9     4     5 1   
    10     4    10 2   
    11     5     8 1   
    12     5     9 1   
@<TRIPOS>SUBSTRUCTURE
     1 DHD         1 TEMP              0 ****  ****    0 ROOT
