@<TRIPOS>MOLECULE
DHD
   13    12     1     0     0
SMALL
No Charge or Current Charge


@<TRIPOS>ATOM
      1 C1          -0.1490     0.2260     2.3980 c          1 DHD       0.639000
      2 C2           0.1610    -0.6330     1.0540 c          1 DHD       0.443100
      3 C3           1.0530     0.0050    -0.0120 c3         1 DHD      -0.297400
      4 C4           0.1220     0.6160    -1.0600 c          1 DHD       0.443100
      5 C5          -0.1880    -0.2520    -2.3990 c          1 DHD       0.639000
      6 O11          0.7570     0.8880     2.8990 o          1 DHD      -0.724000
      7 O12         -1.2750     0.1640     2.8890 o          1 DHD      -0.724000
      8 O51         -1.3250    -0.2240    -2.8680 o          1 DHD      -0.724000
      9 O52          0.7280    -0.8870    -2.9170 o          1 DHD      -0.724000
     10 O4          -0.3770     1.7260    -0.8600 o          1 DHD      -0.567600
     11 O2          -0.3080    -1.7580     0.8630 o          1 DHD      -0.567600
     12 H31          1.6420     0.8130     0.4350 hc         1 DHD       0.082200
     13 H32          1.6570    -0.7840    -0.4700 hc         1 DHD       0.082200
@<TRIPOS>BOND
     1     1     2 1   
     2     1     6 1   
     3     1     7 1   
     4     2     3 1   
     5     2    11 2   
     6     3     4 1   
     7     3    12 1   
     8     3    13 1   
     9     4     5 1   
    10     4    10 2   
    11     5     8 1   
    12     5     9 1   
@<TRIPOS>SUBSTRUCTURE
     1 DHD         1 TEMP              0 ****  ****    0 ROOT
