@<TRIPOS>MOLECULE
DHF
   51    53     1     0     0
SMALL
No Charge or Current Charge


@<TRIPOS>ATOM
      1 N1          -0.9880     0.4020     8.1000 na         1 DHF      -0.809200
      2 C2          -0.2500    -0.5000     8.7560 cc         1 DHF       0.880100
      3 NA2         -0.4210    -0.5910    10.0420 nv         1 DHF      -1.058200
      4 N3           0.5820    -1.2630     8.1540 nd         1 DHF      -0.766100
      5 C4           0.7770    -1.1780     6.7850 c          1 DHF       0.751700
      6 O4           1.5870    -1.9340     6.2660 o          1 DHF      -0.527100
      7 C4A         -0.0090    -0.1710     6.0400 cc         1 DHF      -0.145600
      8 N5           0.1310    -0.0050     4.6480 ne         1 DHF      -0.477300
      9 C6          -0.5790     0.9060     4.0180 c2         1 DHF       0.349300
     10 C7          -1.5850     1.8420     4.7330 c6         1 DHF       0.146500
     11 N8          -1.6780     1.5560     6.1960 nu         1 DHF      -0.826200
     12 C8A         -0.8910     0.6070     6.7570 cd         1 DHF       0.356000
     13 C9          -0.4300     1.1250     2.5040 c3         1 DHF       0.211500
     14 N10         -0.0950    -0.1090     1.7370 nu         1 DHF      -0.982200
     15 C11          0.7060    -0.4680    -2.3980 ca         1 DHF      -0.156600
     16 C12          1.0860    -1.4780    -1.4860 ca         1 DHF      -0.033000
     17 C13          0.8130    -1.3450    -0.1130 ca         1 DHF      -0.213000
     18 C14          0.1600    -0.2080     0.3730 ca         1 DHF       0.319000
     19 C15         -0.2270     0.8010    -0.5220 ca         1 DHF      -0.213000
     20 C16          0.0420     0.6780    -1.8960 ca         1 DHF      -0.033000
     21 O            1.5830    -1.6430    -4.2990 o          1 DHF      -0.643100
     22 N            0.6320     0.3860    -4.7100 ns         1 DHF      -0.424900
     23 CA           0.7980     0.4130    -6.1840 c3         1 DHF      -0.049300
     24 CB          -0.4990    -0.0060    -6.9290 c3         1 DHF      -0.054400
     25 CG          -0.9690    -1.4570    -6.6480 c3         1 DHF      -0.200400
     26 CD          -2.1910    -1.7970    -7.5230 c          1 DHF       0.712000
     27 OE1         -3.3030    -1.5420    -7.0880 o          1 DHF      -0.763000
     28 OE2         -1.9950    -2.2610    -8.6360 o          1 DHF      -0.763000
     29 CT           1.2780     1.8250    -6.6420 c          1 DHF       0.718000
     30 O1           2.2910     1.8990    -7.3230 o          1 DHF      -0.744000
     31 O2           0.6780     2.8090    -6.2270 o          1 DHF      -0.744000
     32 HN1         -1.6630     0.9150     8.6380 hn         1 DHF       0.490000
     33 HN21         0.2770    -1.1840    10.4680 hn         1 DHF       0.494000
     34 HN22        -0.5680     0.2860    10.5200 hn         1 DHF       0.494000
     35 H71         -2.5720     1.7230     4.2640 h1         1 DHF       0.055200
     36 H72         -1.2730     2.8840     4.5720 h1         1 DHF       0.055200
     37 HN8         -2.1800     2.1910     6.8180 hn         1 DHF       0.484000
     38 H91         -1.3660     1.5500     2.1150 h1         1 DHF       0.041200
     39 H92          0.3550     1.8770     2.3410 h1         1 DHF       0.041200
     40 HN0          0.2390    -0.8960     2.3010 hn         1 DHF       0.508000
     41 H12          1.5960    -2.3730    -1.8380 ha         1 DHF       0.128000
     42 H13          1.1150    -2.1350     0.5690 ha         1 DHF       0.095500
     43 H15         -0.7400     1.6880    -0.1630 ha         1 DHF       0.095500
     44 H16         -0.2760     1.4820    -2.5550 ha         1 DHF       0.128000
     45 HN           0.2000     1.1900    -4.2760 hn         1 DHF       0.295500
     46 HA           1.5920    -0.2920    -6.4580 h1         1 DHF       0.055700
     47 HB1         -1.3060     0.6910    -6.6710 hc         1 DHF       0.049200
     48 HB2         -0.3270     0.1040    -8.0070 hc         1 DHF       0.049200
     49 HG1         -0.1200    -2.1020    -6.9080 hc         1 DHF       0.010200
     50 HG2         -1.2410    -1.4910    -5.5860 hc         1 DHF       0.010200
     51 C            1.0150    -0.6440    -3.8720 c          1 DHF       0.601700
@<TRIPOS>BOND
     1     1     2 1   
     2     1    12 1   
     3     1    32 1   
     4     2     3 1   
     5     2     4 2   
     6     3    33 1   
     7     3    34 1   
     8     4     5 1   
     9     5     6 2   
    10     5     7 1   
    11     7     8 1   
    12     7    12 2   
    13     8     9 2   
    14     9    10 1   
    15     9    13 1   
    16    10    11 1   
    17    10    35 1   
    18    10    36 1   
    19    11    12 1   
    20    11    37 1   
    21    13    14 1   
    22    13    38 1   
    23    13    39 1   
    24    14    18 1   
    25    14    40 1   
    26    15    16 ar  
    27    15    20 ar  
    28    15    51 1   
    29    16    17 ar  
    30    16    41 1   
    31    17    18 ar  
    32    17    42 1   
    33    18    19 ar  
    34    19    20 ar  
    35    19    43 1   
    36    20    44 1   
    37    21    51 2   
    38    22    23 1   
    39    22    45 1   
    40    22    51 1   
    41    23    24 1   
    42    23    29 1   
    43    23    46 1   
    44    24    25 1   
    45    24    47 1   
    46    24    48 1   
    47    25    26 1   
    48    25    49 1   
    49    25    50 1   
    50    26    27 1   
    51    26    28 1   
    52    29    30 1   
    53    29    31 1   
@<TRIPOS>SUBSTRUCTURE
     1 DHF         1 TEMP              0 ****  ****    0 ROOT
