@<TRIPOS>MOLECULE
DHF
   51    53     1     0     0
SMALL
bcc


@<TRIPOS>ATOM
      1 N1          -1.1800    -0.0150     7.8120 na         1 DHF      -0.754000
      2 C2          -0.0480    -0.3520     8.5000 cc         1 DHF       0.880100
      3 NA2         -0.2180    -0.6570     9.7960 nv         1 DHF      -0.947800
      4 N3           1.1270    -0.4120     7.9540 nd         1 DHF      -0.766100
      5 C4           1.2900    -0.1650     6.6070 c          1 DHF       0.751700
      6 O4           2.4050    -0.2630     6.0980 o          1 DHF      -0.527100
      7 C4A          0.1180     0.2050     5.8520 cc         1 DHF      -0.145600
      8 N5           0.1670     0.3120     4.4680 ne         1 DHF      -0.477300
      9 C6          -0.8440     0.7570     3.8440 c2         1 DHF       0.349300
     10 C7          -2.0680     1.2880     4.5490 c6         1 DHF       0.146500
     11 N8          -2.2100     0.5800     5.8020 nu         1 DHF      -0.771000
     12 C8A         -1.0990     0.2800     6.4880 cd         1 DHF       0.356000
     13 C9          -0.8600     0.8050     2.3490 c3         1 DHF       0.211500
     14 N10          0.3980     0.3950     1.8050 nu         1 DHF      -0.788600
     15 C11          1.0380    -0.4420    -2.2470 ca         1 DHF      -0.156600
     16 C12          1.9910    -0.7610    -1.2740 ca         1 DHF      -0.051000
     17 C13          1.7840    -0.4790     0.0570 ca         1 DHF      -0.231000
     18 C14          0.5870     0.1250     0.4890 ca         1 DHF       0.180600
     19 C15         -0.3780     0.4350    -0.4830 ca         1 DHF      -0.231000
     20 C16         -0.1460     0.1550    -1.8180 ca         1 DHF      -0.051000
     21 O            2.1420    -1.6550    -3.9570 o          1 DHF      -0.643100
     22 N            0.5810    -0.1600    -4.5950 ns         1 DHF      -0.491900
     23 CA           0.8030    -0.3420    -6.0110 c3         1 DHF      -0.049300
     24 CB          -0.4080     0.1820    -6.7870 c3         1 DHF      -0.054400
     25 CG          -1.6940    -0.5650    -6.4720 c3         1 DHF      -0.200400
     26 CD          -2.9410    -0.1050    -7.2480 c          1 DHF       0.922600
     27 OE1         -2.8220     0.8580    -8.0300 o          1 DHF      -0.868300
     28 OE2         -3.9900    -0.7470    -7.0230 o          1 DHF      -0.868300
     29 CT           2.1050     0.3350    -6.5100 c          1 DHF       0.928600
     30 O1           2.4700    -0.0070    -7.6530 o          1 DHF      -0.849300
     31 O2           2.6530     1.1640    -5.7630 o          1 DHF      -0.849300
     32 HN1         -2.0730     0.0240     8.2850 hn         1 DHF       0.434800
     33 HN21         0.6100    -0.7690    10.3550 hn         1 DHF       0.438800
     34 HN22        -1.0570    -0.3960    10.2870 hn         1 DHF       0.438800
     35 H71         -2.9630     1.1300     3.9480 h1         1 DHF       0.055200
     36 H72         -1.9640     2.3730     4.6980 h1         1 DHF       0.055200
     37 HN8         -3.0980     0.6260     6.2760 hn         1 DHF       0.428800
     38 H91         -1.6870     0.1680     2.0020 h1         1 DHF       0.041200
     39 H92         -1.1260     1.8240     2.0340 h1         1 DHF       0.041200
     40 HN0          1.0560     0.0270     2.4760 hn         1 DHF       0.452800
     41 H12          2.9160    -1.2380    -1.5720 ha         1 DHF       0.146000
     42 H13          2.5450    -0.7300     0.7860 ha         1 DHF       0.113500
     43 H15         -1.3170     0.8900    -0.2000 ha         1 DHF       0.113500
     44 H16         -0.9340     0.3900    -2.5230 ha         1 DHF       0.146000
     45 HN           0.1060     0.6860    -4.3230 hn         1 DHF       0.295500
     46 HA           0.8910    -1.4150    -6.2030 h1         1 DHF       0.055700
     47 HB1         -0.5310     1.2510    -6.5830 hc         1 DHF       0.049200
     48 HB2         -0.1840     0.1000    -7.8510 hc         1 DHF       0.049200
     49 HG1         -1.5470    -1.6350    -6.6620 hc         1 DHF       0.010200
     50 HG2         -1.9180    -0.5000    -5.4020 hc         1 DHF       0.010200
     51 C            1.3120    -0.7970    -3.6660 c          1 DHF       0.668700
@<TRIPOS>BOND
     1     1     2 1   
     2     1    12 1   
     3     1    32 1   
     4     2     3 1   
     5     2     4 2   
     6     3    33 1   
     7     3    34 1   
     8     4     5 1   
     9     5     6 2   
    10     5     7 1   
    11     7     8 1   
    12     7    12 2   
    13     8     9 2   
    14     9    10 1   
    15     9    13 1   
    16    10    11 1   
    17    10    35 1   
    18    10    36 1   
    19    11    12 1   
    20    11    37 1   
    21    13    14 1   
    22    13    38 1   
    23    13    39 1   
    24    14    18 1   
    25    14    40 1   
    26    15    16 ar  
    27    15    20 ar  
    28    15    51 1   
    29    16    17 ar  
    30    16    41 1   
    31    17    18 ar  
    32    17    42 1   
    33    18    19 ar  
    34    19    20 ar  
    35    19    43 1   
    36    20    44 1   
    37    21    51 2   
    38    22    23 1   
    39    22    45 1   
    40    22    51 1   
    41    23    24 1   
    42    23    29 1   
    43    23    46 1   
    44    24    25 1   
    45    24    47 1   
    46    24    48 1   
    47    25    26 1   
    48    25    49 1   
    49    25    50 1   
    50    26    27 1   
    51    26    28 1   
    52    29    30 1   
    53    29    31 1   
@<TRIPOS>SUBSTRUCTURE
     1 DHF         1 TEMP              0 ****  ****    0 ROOT
