@<TRIPOS>MOLECULE
DHG
   69    68     1     0     0
SMALL
No Charge or Current Charge


@<TRIPOS>ATOM
      1 C1           1.3500    -1.2040    -0.7230 c          1 DHG       0.596100
      2 C2           1.4250    -1.7150     0.7200 c3         1 DHG      -0.160400
      3 C3           1.0080    -0.6200     1.7310 c3         1 DHG      -0.065400
      4 C4           1.0940    -1.0920     3.1990 c3         1 DHG      -0.076400
      5 C5           0.6750    -0.0020     4.2100 c3         1 DHG      -0.074400
      6 C6           0.7820    -0.4680     5.6800 c3         1 DHG      -0.074400
      7 C7           0.3660     0.6230     6.6920 c3         1 DHG      -0.074400
      8 C8           0.4920     0.1630     8.1610 c3         1 DHG      -0.074400
      9 C9           0.0780     1.2530     9.1730 c3         1 DHG      -0.074400
     10 C10          0.2140     0.7950    10.6430 c3         1 DHG      -0.075400
     11 C11         -0.1960     1.8870    11.6560 c3         1 DHG      -0.075400
     12 C12         -0.0540     1.4320    13.1210 c3         1 DHG      -0.088100
     13 O1           2.1840    -0.4470    -1.1970 o          1 DHG      -0.605100
     14 N            0.2910    -1.6910    -1.4560 ns         1 DHG      -0.505900
     15 CH1          0.9430    -2.1370    -3.8270 c3         1 DHG       0.210600
     16 CH2          0.0070    -1.3430    -2.8570 c3         1 DHG       0.103700
     17 CH3         -1.5040    -1.5520    -3.1460 c3         1 DHG      -0.085400
     18 CH4         -2.4460    -0.7200    -2.2410 c3         1 DHG      -0.075400
     19 CH5         -3.9370    -0.9000    -2.5990 c3         1 DHG      -0.077400
     20 CH6         -4.8760    -0.0700    -1.7030 c3         1 DHG      -0.086100
     21 O1P          1.3890    -0.3740    -7.2820 o          1 DHG      -0.832000
     22 O2P         -0.4780    -1.7890    -6.5240 o          1 DHG      -0.832000
     23 O3P          1.4500    -1.3140    -4.8970 os         1 DHG      -0.583400
     24 P            0.5430    -0.7780    -6.1200 p5         1 DHG       1.396800
     25 OG1         -0.1250     0.5060    -5.4150 os         1 DHG      -0.577400
     26 CG1          0.6790     1.6800    -5.2280 c3         1 DHG       0.225600
     27 CG2         -0.1680     2.7840    -4.5360 c3         1 DHG       0.156600
     28 OG2         -0.4360     2.4740    -3.1580 oh         1 DHG      -0.637000
     29 H21          2.4590    -2.0100     0.9350 hc         1 DHG       0.050200
     30 H22          0.7580    -2.5760     0.8490 hc         1 DHG       0.050200
     31 H31         -0.0190    -0.3000     1.5120 hc         1 DHG       0.053200
     32 H32          1.6520     0.2590     1.5980 hc         1 DHG       0.053200
     33 H41          2.1220    -1.4080     3.4160 hc         1 DHG       0.033700
     34 H42          0.4530    -1.9730     3.3330 hc         1 DHG       0.033700
     35 H51         -0.3590     0.3040     4.0030 hc         1 DHG       0.038700
     36 H52          1.3060     0.8840     4.0670 hc         1 DHG       0.038700
     37 H61          1.8150    -0.7740     5.8850 hc         1 DHG       0.035700
     38 H62          0.1500    -1.3540     5.8240 hc         1 DHG       0.035700
     39 H71         -0.6720     0.9200     6.4940 hc         1 DHG       0.037200
     40 H72          0.9890     1.5130     6.5380 hc         1 DHG       0.037200
     41 H81          1.5310    -0.1350     8.3570 hc         1 DHG       0.036200
     42 H82         -0.1310    -0.7280     8.3150 hc         1 DHG       0.036200
     43 H91         -0.9620     1.5470     8.9820 hc         1 DHG       0.036700
     44 H92          0.6980     2.1450     9.0150 hc         1 DHG       0.036700
     45 H101         1.2540     0.5000    10.8330 hc         1 DHG       0.036200
     46 H102        -0.4080    -0.0960    10.8020 hc         1 DHG       0.036200
     47 H111        -1.2380     2.1810    11.4730 hc         1 DHG       0.036200
     48 H112         0.4210     2.7810    11.4980 hc         1 DHG       0.036200
     49 H121        -0.3560     2.2370    13.8020 hc         1 DHG       0.029700
     50 H122        -0.6870     0.5580    13.3200 hc         1 DHG       0.029700
     51 H123         0.9870     1.1650    13.3450 hc         1 DHG       0.029700
     52 HN          -0.3420    -2.3190    -0.9760 hn         1 DHG       0.299500
     53 HH11         1.7960    -2.5250    -3.2550 h1         1 DHG       0.026700
     54 HH12         0.4100    -3.0120    -4.2230 h1         1 DHG       0.026700
     55 HH2          0.2300    -0.2740    -2.9730 h1         1 DHG       0.087700
     56 HH31        -1.7150    -1.2920    -4.1880 hc         1 DHG       0.058200
     57 HH32        -1.7470    -2.6160    -3.0370 hc         1 DHG       0.058200
     58 HH41        -2.2980    -1.0020    -1.1910 hc         1 DHG       0.034200
     59 HH42        -2.1820     0.3400    -2.3270 hc         1 DHG       0.034200
     60 HH51        -4.0970    -0.6120    -3.6460 hc         1 DHG       0.037200
     61 HH52        -4.2070    -1.9600    -2.5130 hc         1 DHG       0.037200
     62 HH61        -5.9210    -0.2260    -1.9970 hc         1 DHG       0.024700
     63 HH62        -4.7670    -0.3610    -0.6520 hc         1 DHG       0.024700
     64 HH63        -4.6520     1.0000    -1.7920 hc         1 DHG       0.024700
     65 HG11         1.5640     1.4600    -4.6150 h1         1 DHG       0.025700
     66 HG12         1.0230     2.0670    -6.1960 h1         1 DHG       0.025700
     67 HG21         0.3810     3.7320    -4.5960 h1         1 DHG       0.003200
     68 HG22        -1.1100     2.9150    -5.0850 h1         1 DHG       0.003200
     69 HOG2        -1.0070     3.1930    -2.8110 ho         1 DHG       0.413000
@<TRIPOS>BOND
     1     1     2 1   
     2     1    13 2   
     3     1    14 1   
     4     2     3 1   
     5     2    29 1   
     6     2    30 1   
     7     3     4 1   
     8     3    31 1   
     9     3    32 1   
    10     4     5 1   
    11     4    33 1   
    12     4    34 1   
    13     5     6 1   
    14     5    35 1   
    15     5    36 1   
    16     6     7 1   
    17     6    37 1   
    18     6    38 1   
    19     7     8 1   
    20     7    39 1   
    21     7    40 1   
    22     8     9 1   
    23     8    41 1   
    24     8    42 1   
    25     9    10 1   
    26     9    43 1   
    27     9    44 1   
    28    10    11 1   
    29    10    45 1   
    30    10    46 1   
    31    11    12 1   
    32    11    47 1   
    33    11    48 1   
    34    12    49 1   
    35    12    50 1   
    36    12    51 1   
    37    14    16 1   
    38    14    52 1   
    39    15    16 1   
    40    15    23 1   
    41    15    53 1   
    42    15    54 1   
    43    16    17 1   
    44    16    55 1   
    45    17    18 1   
    46    17    56 1   
    47    17    57 1   
    48    18    19 1   
    49    18    58 1   
    50    18    59 1   
    51    19    20 1   
    52    19    60 1   
    53    19    61 1   
    54    20    62 1   
    55    20    63 1   
    56    20    64 1   
    57    21    24 1   
    58    22    24 1   
    59    23    24 1   
    60    24    25 1   
    61    25    26 1   
    62    26    27 1   
    63    26    65 1   
    64    26    66 1   
    65    27    28 1   
    66    27    67 1   
    67    27    68 1   
    68    28    69 1   
@<TRIPOS>SUBSTRUCTURE
     1 DHG         1 TEMP              0 ****  ****    0 ROOT
