@<TRIPOS>MOLECULE
DHG
   69    68     1     0     0
SMALL
bcc


@<TRIPOS>ATOM
      1 C1           0.2470    -0.1220    -0.0580 c          1 DHG       0.663100
      2 C2           0.3730    -0.8220     1.2780 c3         1 DHG      -0.160400
      3 C3           0.3640     0.1390     2.4610 c3         1 DHG      -0.065400
      4 C4           0.5040    -0.5930     3.7900 c3         1 DHG      -0.076400
      5 C5           0.4980     0.3450     4.9900 c3         1 DHG      -0.074400
      6 C6           0.6260    -0.3870     6.3200 c3         1 DHG      -0.074400
      7 C7           0.6210     0.5450     7.5260 c3         1 DHG      -0.074400
      8 C8           0.7450    -0.1930     8.8530 c3         1 DHG      -0.074400
      9 C9           0.7400     0.7330    10.0630 c3         1 DHG      -0.074400
     10 C10          0.8690    -0.0090    11.3870 c3         1 DHG      -0.075400
     11 C11          0.8610     0.9110    12.6010 c3         1 DHG      -0.075400
     12 C12          1.0010     0.1540    13.9150 c3         1 DHG      -0.088100
     13 O1           0.7810     0.9570    -0.2810 o          1 DHG      -0.605100
     14 N           -0.4780    -0.7810    -0.9790 ns         1 DHG      -0.572900
     15 CH1          0.4520    -0.8410    -3.2220 c3         1 DHG       0.187400
     16 CH2         -0.6840    -0.3270    -2.3400 c3         1 DHG       0.103700
     17 CH3         -2.0580    -0.7700    -2.8290 c3         1 DHG      -0.085400
     18 CH4         -3.2100    -0.1110    -2.0820 c3         1 DHG      -0.075400
     19 CH5         -4.5760    -0.5780    -2.5700 c3         1 DHG      -0.077400
     20 CH6         -5.7260     0.1020    -1.8400 c3         1 DHG      -0.086100
     21 O1P          2.7560    -0.4990    -5.3500 o          1 DHG      -0.832000
     22 O2P          0.9420    -2.1970    -6.0810 o          1 DHG      -0.832000
     23 O3P          0.3320    -0.2560    -4.5020 os         1 DHG      -0.560200
     24 P            1.3270    -0.8030    -5.6880 p5         1 DHG       1.396800
     25 OG1          0.7590     0.2730    -6.7860 os         1 DHG      -0.554200
     26 CG1          1.5040     0.4520    -7.9770 c3         1 DHG       0.202400
     27 CG2          0.7020     1.2700    -8.9570 c3         1 DHG       0.133400
     28 OG2          0.4940     2.5610    -8.4340 oh         1 DHG      -0.574800
     29 H21          1.3170    -1.3790     1.2680 hc         1 DHG       0.050200
     30 H22         -0.4170    -1.5670     1.3970 hc         1 DHG       0.050200
     31 H31         -0.5660     0.7150     2.4590 hc         1 DHG       0.053200
     32 H32          1.1760     0.8620     2.3540 hc         1 DHG       0.053200
     33 H41          1.4320    -1.1750     3.7890 hc         1 DHG       0.033700
     34 H42         -0.3090    -1.3190     3.8950 hc         1 DHG       0.033700
     35 H51         -0.4270     0.9340     4.9870 hc         1 DHG       0.038700
     36 H52          1.3160     1.0670     4.8910 hc         1 DHG       0.038700
     37 H61          1.5490    -0.9780     6.3220 hc         1 DHG       0.035700
     38 H62         -0.1940    -1.1070     6.4170 hc         1 DHG       0.035700
     39 H71         -0.3010     1.1370     7.5240 hc         1 DHG       0.037200
     40 H72          1.4420     1.2640     7.4310 hc         1 DHG       0.037200
     41 H81          1.6670    -0.7850     8.8540 hc         1 DHG       0.036200
     42 H82         -0.0760    -0.9130     8.9460 hc         1 DHG       0.036200
     43 H91         -0.1840     1.3230    10.0650 hc         1 DHG       0.036700
     44 H92          1.5590     1.4550     9.9700 hc         1 DHG       0.036700
     45 H101         1.7930    -0.5980    11.3850 hc         1 DHG       0.036200
     46 H102         0.0510    -0.7330    11.4790 hc         1 DHG       0.036200
     47 H111        -0.0660     1.4940    12.6080 hc         1 DHG       0.036200
     48 H112         1.6750     1.6380    12.5080 hc         1 DHG       0.036200
     49 H121         0.9880     0.8280    14.7730 hc         1 DHG       0.029700
     50 H122         0.1870    -0.5620    14.0460 hc         1 DHG       0.029700
     51 H123         1.9380    -0.4050    13.9480 hc         1 DHG       0.029700
     52 HN          -0.8660    -1.6770    -0.7280 hn         1 DHG       0.299500
     53 HH11         1.4110    -0.5730    -2.7640 h1         1 DHG       0.026700
     54 HH12         0.4030    -1.9360    -3.2720 h1         1 DHG       0.026700
     55 HH2         -0.6430     0.7660    -2.3340 h1         1 DHG       0.087700
     56 HH31        -2.1400    -0.5420    -3.8940 hc         1 DHG       0.058200
     57 HH32        -2.1350    -1.8620    -2.7470 hc         1 DHG       0.058200
     58 HH41        -3.1240    -0.3090    -1.0090 hc         1 DHG       0.034200
     59 HH42        -3.1350     0.9770    -2.1950 hc         1 DHG       0.034200
     60 HH51        -4.6610    -0.3910    -3.6440 hc         1 DHG       0.037200
     61 HH52        -4.6510    -1.6630    -2.4450 hc         1 DHG       0.037200
     62 HH61        -6.6930    -0.2530    -2.1970 hc         1 DHG       0.024700
     63 HH62        -5.6790    -0.0890    -0.7660 hc         1 DHG       0.024700
     64 HH63        -5.6970     1.1840    -1.9810 hc         1 DHG       0.024700
     65 HG11         2.4570     0.9500    -7.7680 h1         1 DHG       0.025700
     66 HG12         1.7370    -0.5060    -8.4550 h1         1 DHG       0.025700
     67 HG21         1.2670     1.2960    -9.8980 h1         1 DHG       0.003200
     68 HG22        -0.2450     0.7570    -9.1700 h1         1 DHG       0.003200
     69 HOG2        -0.0510     3.0510    -9.0560 ho         1 DHG       0.374000
@<TRIPOS>BOND
     1     1     2 1   
     2     1    13 2   
     3     1    14 1   
     4     2     3 1   
     5     2    29 1   
     6     2    30 1   
     7     3     4 1   
     8     3    31 1   
     9     3    32 1   
    10     4     5 1   
    11     4    33 1   
    12     4    34 1   
    13     5     6 1   
    14     5    35 1   
    15     5    36 1   
    16     6     7 1   
    17     6    37 1   
    18     6    38 1   
    19     7     8 1   
    20     7    39 1   
    21     7    40 1   
    22     8     9 1   
    23     8    41 1   
    24     8    42 1   
    25     9    10 1   
    26     9    43 1   
    27     9    44 1   
    28    10    11 1   
    29    10    45 1   
    30    10    46 1   
    31    11    12 1   
    32    11    47 1   
    33    11    48 1   
    34    12    49 1   
    35    12    50 1   
    36    12    51 1   
    37    14    16 1   
    38    14    52 1   
    39    15    16 1   
    40    15    23 1   
    41    15    53 1   
    42    15    54 1   
    43    16    17 1   
    44    16    55 1   
    45    17    18 1   
    46    17    56 1   
    47    17    57 1   
    48    18    19 1   
    49    18    58 1   
    50    18    59 1   
    51    19    20 1   
    52    19    60 1   
    53    19    61 1   
    54    20    62 1   
    55    20    63 1   
    56    20    64 1   
    57    21    24 1   
    58    22    24 1   
    59    23    24 1   
    60    24    25 1   
    61    25    26 1   
    62    26    27 1   
    63    26    65 1   
    64    26    66 1   
    65    27    28 1   
    66    27    67 1   
    67    27    68 1   
    68    28    69 1   
@<TRIPOS>SUBSTRUCTURE
     1 DHG         1 TEMP              0 ****  ****    0 ROOT
