@<TRIPOS>MOLECULE
DHH
   26    25     1     0     0
SMALL
No Charge or Current Charge


@<TRIPOS>ATOM
      1 NP1          2.5850     1.8740     0.2520 n8         1 DHH      -0.987200
      2 C02          2.4460     0.3850     0.4430 c3         1 DHH       0.021500
      3 C03          3.6890    -0.5030     0.0100 c          1 DHH       0.724000
      4 O04          4.2550    -1.1690     0.8680 o          1 DHH      -0.732500
      5 O05          4.0810    -0.4390    -1.1500 o          1 DHH      -0.732500
      6 C06          1.1430    -0.1200    -0.2360 c3         1 DHH      -0.100400
      7 C07         -0.1630     0.4520     0.3690 c3         1 DHH      -0.077400
      8 C08         -1.4360    -0.1300    -0.2870 c3         1 DHH      -0.075400
      9 C09         -2.7430     0.4410     0.3160 c3         1 DHH      -0.107400
     10 C10         -4.0290    -0.0930    -0.3540 c3         1 DHH       0.379300
     11 O1          -4.1930    -1.4690    -0.0960 oh         1 DHH      -0.688000
     12 O2          -5.1600     0.5260     0.2140 oh         1 DHH      -0.688000
     13 HP11         2.7800     2.0590    -0.7390 hn         1 DHH       0.373500
     14 HP12         1.6730     2.3150     0.4120 hn         1 DHH       0.373500
     15 H02          2.3230     0.2190     1.5220 h1         1 DHH       0.042700
     16 H061         1.1790     0.1010    -1.3100 hc         1 DHH       0.043700
     17 H062         1.1130    -1.2130    -0.1470 hc         1 DHH       0.043700
     18 H071        -0.1850     0.2390     1.4450 hc         1 DHH       0.026200
     19 H072        -0.1760     1.5430     0.2570 hc         1 DHH       0.026200
     20 H081        -1.4150     0.0820    -1.3640 hc         1 DHH       0.041200
     21 H082        -1.4280    -1.2210    -0.1760 hc         1 DHH       0.041200
     22 H091        -2.7720     0.2310     1.3920 hc         1 DHH       0.051200
     23 H092        -2.7270     1.5330     0.2110 hc         1 DHH       0.051200
     24 H10         -4.0090     0.0890    -1.4370 h2         1 DHH       0.055700
     25 HO1         -3.8990    -1.5930     0.8300 ho         1 DHH       0.446500
     26 HO2         -5.8860     0.3810    -0.4290 ho         1 DHH       0.446500
@<TRIPOS>BOND
     1     1     2 1   
     2     1    13 1   
     3     1    14 1   
     4     2     3 1   
     5     2     6 1   
     6     2    15 1   
     7     3     4 1   
     8     3     5 1   
     9     6     7 1   
    10     6    16 1   
    11     6    17 1   
    12     7     8 1   
    13     7    18 1   
    14     7    19 1   
    15     8     9 1   
    16     8    20 1   
    17     8    21 1   
    18     9    10 1   
    19     9    22 1   
    20     9    23 1   
    21    10    11 1   
    22    10    12 1   
    23    10    24 1   
    24    11    25 1   
    25    12    26 1   
@<TRIPOS>SUBSTRUCTURE
     1 DHH         1 TEMP              0 ****  ****    0 ROOT
