@<TRIPOS>MOLECULE
DHH
   26    25     1     0     0
SMALL
abcg2


@<TRIPOS>ATOM
      1 NP1          2.6110     1.8370     0.1920 n8         1 DHH      -0.987200
      2 C02          2.3910     0.4240     0.4580 c3         1 DHH       0.021500
      3 C03          3.5900    -0.4150    -0.0340 c          1 DHH       0.724000
      4 O04          3.7360    -1.5330     0.5020 o          1 DHH      -0.732500
      5 O05          4.2880     0.0650    -0.9500 o          1 DHH      -0.732500
      6 C06          1.1070    -0.1560    -0.1590 c3         1 DHH      -0.100400
      7 C07         -0.1780     0.4700     0.3680 c3         1 DHH      -0.077400
      8 C08         -1.4280    -0.1510    -0.2420 c3         1 DHH      -0.075400
      9 C09         -2.7110     0.4630     0.3020 c3         1 DHH      -0.107400
     10 C10         -3.9680    -0.1000    -0.3390 c3         1 DHH       0.379300
     11 O1          -4.0770    -1.4880    -0.1900 oh         1 DHH      -0.688000
     12 O2          -5.0620     0.5740     0.2180 oh         1 DHH      -0.688000
     13 HP11         2.8450     1.9460    -0.7860 hn         1 DHH       0.373500
     14 HP12         1.7600     2.3620     0.3490 hn         1 DHH       0.373500
     15 H02          2.3150     0.2930     1.5440 h1         1 DHH       0.042700
     16 H061         1.1510    -0.0400    -1.2490 hc         1 DHH       0.043700
     17 H062         1.0770    -1.2320     0.0360 hc         1 DHH       0.043700
     18 H071        -0.2110     0.3610     1.4580 hc         1 DHH       0.026200
     19 H072        -0.1880     1.5480     0.1710 hc         1 DHH       0.026200
     20 H081        -1.3960    -0.0290    -1.3310 hc         1 DHH       0.041200
     21 H082        -1.4200    -1.2290    -0.0580 hc         1 DHH       0.041200
     22 H091        -2.7630     0.3170     1.3880 hc         1 DHH       0.051200
     23 H092        -2.6910     1.5440     0.1360 hc         1 DHH       0.051200
     24 H10         -3.9280     0.0570    -1.4240 h2         1 DHH       0.055700
     25 HO1         -3.9490    -1.7130     0.7390 ho         1 DHH       0.446500
     26 HO2         -5.8530     0.3450    -0.2830 ho         1 DHH       0.446500
@<TRIPOS>BOND
     1     1     2 1   
     2     1    13 1   
     3     1    14 1   
     4     2     3 1   
     5     2     6 1   
     6     2    15 1   
     7     3     4 1   
     8     3     5 1   
     9     6     7 1   
    10     6    16 1   
    11     6    17 1   
    12     7     8 1   
    13     7    18 1   
    14     7    19 1   
    15     8     9 1   
    16     8    20 1   
    17     8    21 1   
    18     9    10 1   
    19     9    22 1   
    20     9    23 1   
    21    10    11 1   
    22    10    12 1   
    23    10    24 1   
    24    11    25 1   
    25    12    26 1   
@<TRIPOS>SUBSTRUCTURE
     1 DHH         1 TEMP              0 ****  ****    0 ROOT
