@<TRIPOS>MOLECULE
DHI
   20    20     1     0     0
SMALL
No Charge or Current Charge


@<TRIPOS>ATOM
      1 N           18.8290    -4.8120    34.2320 n8         1 DHI      -0.863800
      2 CA          19.7070    -4.9340    35.4560 c3         1 DHI       0.015500
      3 C           21.2670    -4.6910    35.2400 c          1 DHI       0.929600
      4 O           21.7620    -3.6120    35.5590 o          1 DHI      -0.794300
      5 CB          19.1410    -4.0670    36.6140 c3         1 DHI      -0.022100
      6 CG          17.7320    -4.4260    37.0150 cc         1 DHI      -0.002600
      7 ND1         16.5900    -3.8020    36.5060 na         1 DHI      -0.124100
      8 CD2         17.3160    -5.3760    37.9280 cd         1 DHI      -0.164300
      9 CE1         15.4680    -4.3650    37.0920 cc         1 DHI      -0.068600
     10 NE2         15.9390    -5.3190    37.9530 na         1 DHI      -0.112100
     11 OXT         21.9350    -5.6060    34.7670 o          1 DHI      -0.794300
     12 H           17.8850    -5.1390    34.4600 hn         1 DHI       0.317300
     13 H2          19.1610    -5.4650    33.5140 hn         1 DHI       0.317300
     14 HA          19.6160    -5.9810    35.7780 h1         1 DHI       0.006700
     15 HB2         19.7950    -4.1770    37.4890 hc         1 DHI       0.096200
     16 HB3         19.1910    -3.0080    36.3330 hc         1 DHI       0.096200
     17 HD1         16.5860    -3.0590    35.8150 hn         1 DHI       0.355700
     18 HD2         17.8940    -6.0640    38.5400 h4         1 DHI       0.230000
     19 HE1         14.4290    -4.1020    36.9080 h5         1 DHI       0.236000
     20 HE2         15.3510    -5.9090    38.5360 hn         1 DHI       0.346700
@<TRIPOS>BOND
     1     1     2 1   
     2     1    12 1   
     3     1    13 1   
     4     2     3 1   
     5     2     5 1   
     6     2    14 1   
     7     3     4 1   
     8     3    11 1   
     9     5     6 1   
    10     5    15 1   
    11     5    16 1   
    12     6     7 1   
    13     6     8 2   
    14     7     9 2   
    15     7    17 1   
    16     8    10 1   
    17     8    18 1   
    18     9    10 1   
    19     9    19 1   
    20    10    20 1   
@<TRIPOS>SUBSTRUCTURE
     1 DHI         1 TEMP              0 ****  ****    0 ROOT
