@<TRIPOS>MOLECULE
DHI
   20    20     1     0     0
SMALL
bcc


@<TRIPOS>ATOM
      1 N           19.0140    -5.2430    34.3450 n8         1 DHI      -0.863800
      2 CA          19.7360    -5.0440    35.5980 c3         1 DHI       0.015500
      3 C           21.1990    -4.6220    35.3010 c          1 DHI       0.929600
      4 O           21.3530    -3.5380    34.7070 o          1 DHI      -0.794300
      5 CB          19.0360    -3.9550    36.4100 c3         1 DHI      -0.022100
      6 CG          17.6850    -4.3700    36.8800 cc         1 DHI      -0.002600
      7 ND1         16.6350    -3.4960    37.0230 na         1 DHI      -0.124100
      8 CD2         17.2040    -5.5800    37.2740 cd         1 DHI      -0.164300
      9 CE1         15.5650    -4.1270    37.4790 cc         1 DHI      -0.068600
     10 NE2         15.8960    -5.3940    37.6360 na         1 DHI      -0.112100
     11 OXT         22.0880    -5.4070    35.6830 o          1 DHI      -0.794300
     12 H           18.1040    -5.6450    34.5350 hn         1 DHI       0.317300
     13 H2          19.4950    -5.9360    33.7850 hn         1 DHI       0.317300
     14 HA          19.7750    -5.9560    36.2120 h1         1 DHI       0.006700
     15 HB2         19.6410    -3.6920    37.2820 hc         1 DHI       0.096200
     16 HB3         18.9500    -3.0540    35.8000 hc         1 DHI       0.096200
     17 HD1         16.6650    -2.5080    36.8080 hn         1 DHI       0.355700
     18 HD2         17.6800    -6.5430    37.3240 h4         1 DHI       0.230000
     19 HE1         14.6030    -3.6880    37.6810 h5         1 DHI       0.236000
     20 HE2         15.2700    -6.1140    37.9710 hn         1 DHI       0.346700
@<TRIPOS>BOND
     1     1     2 1   
     2     1    12 1   
     3     1    13 1   
     4     2     3 1   
     5     2     5 1   
     6     2    14 1   
     7     3     4 1   
     8     3    11 1   
     9     5     6 1   
    10     5    15 1   
    11     5    16 1   
    12     6     7 1   
    13     6     8 2   
    14     7     9 2   
    15     7    17 1   
    16     8    10 1   
    17     8    18 1   
    18     9    10 1   
    19     9    19 1   
    20    10    20 1   
@<TRIPOS>SUBSTRUCTURE
     1 DHI         1 TEMP              0 ****  ****    0 ROOT
