@<TRIPOS>MOLECULE
DHK
   21    21     1     0     0
SMALL
No Charge or Current Charge


@<TRIPOS>ATOM
      1 C2          -1.1740    -0.1310    -0.4010 c2         1 DHK      -0.219200
      2 C3          -1.2260     0.2480     0.8860 c2         1 DHK      -0.039100
      3 O3          -2.3880     0.5460     1.5040 oh         1 DHK      -0.575100
      4 C4           0.0190     0.3800     1.7690 c6         1 DHK       0.196500
      5 O4          -0.3150    -0.0050     3.1080 oh         1 DHK      -0.680000
      6 C5           1.1990    -0.4720     1.2070 c6         1 DHK       0.167300
      7 C1           0.1320    -0.5070    -1.1220 c6         1 DHK      -0.161500
      8 C6           1.4020    -0.1490    -0.2920 c6         1 DHK      -0.051400
      9 C            0.2310     0.0510    -2.5690 c          1 DHK       0.727000
     10 O1           0.0330     1.2480    -2.7220 o          1 DHK      -0.728000
     11 O2           0.1080    -0.7510    -3.4840 o          1 DHK      -0.728000
     12 O5           2.4040    -0.2270     1.9510 oh         1 DHK      -0.668000
     13 H2          -2.0830    -0.2080    -1.0020 ha         1 DHK       0.190000
     14 H3          -3.1160     0.4460     0.8520 ho         1 DHK       0.450000
     15 H4           0.3230     1.4380     1.7560 h1         1 DHK       0.041700
     16 HA          -1.2950     0.0970     3.1140 ho         1 DHK       0.444000
     17 H5           0.9280    -1.5350     1.2920 h1         1 DHK       0.035700
     18 H1           0.1340    -1.6020    -1.2170 hc         1 DHK       0.043700
     19 H6C1         1.6330     0.9190    -0.4040 hc         1 DHK       0.059700
     20 H6C2         2.2690    -0.6970    -0.6850 hc         1 DHK       0.059700
     21 HB           2.1230    -0.2110     2.8930 ho         1 DHK       0.435000
@<TRIPOS>BOND
     1     1     2 2   
     2     1     7 1   
     3     1    13 1   
     4     2     3 1   
     5     2     4 1   
     6     3    14 1   
     7     4     5 1   
     8     4     6 1   
     9     4    15 1   
    10     5    16 1   
    11     6     8 1   
    12     6    12 1   
    13     6    17 1   
    14     7     8 1   
    15     7     9 1   
    16     7    18 1   
    17     8    19 1   
    18     8    20 1   
    19     9    10 1   
    20     9    11 1   
    21    12    21 1   
@<TRIPOS>SUBSTRUCTURE
     1 DHK         1 TEMP              0 ****  ****    0 ROOT
