@<TRIPOS>MOLECULE
DHK
   21    21     1     0     0
SMALL
abcg2


@<TRIPOS>ATOM
      1 C2          -1.1380    -0.2610    -0.4610 c2         1 DHK      -0.219200
      2 C3          -1.2700     0.0980     0.8150 c2         1 DHK      -0.039100
      3 O3          -2.4530     0.3620     1.4280 oh         1 DHK      -0.575100
      4 C4          -0.1050     0.3010     1.7510 c6         1 DHK       0.196500
      5 O4          -0.3410    -0.2720     3.0220 oh         1 DHK      -0.680000
      6 C5           1.1480    -0.3520     1.1850 c6         1 DHK       0.167300
      7 C1           0.1910    -0.5030    -1.1180 c6         1 DHK      -0.161500
      8 C6           1.3310     0.0420    -0.2670 c6         1 DHK      -0.051400
      9 C            0.2080     0.0110    -2.5800 c          1 DHK       0.727000
     10 O1           1.2500     0.5670    -2.9770 o          1 DHK      -0.728000
     11 O2          -0.8170    -0.2090    -3.2550 o          1 DHK      -0.728000
     12 O5           2.2940     0.0270     1.9150 oh         1 DHK      -0.668000
     13 H2          -2.0230    -0.3870    -1.0770 ha         1 DHK       0.190000
     14 H3          -3.1780     0.2270     0.8070 ho         1 DHK       0.450000
     15 H4           0.0830     1.3810     1.8510 h1         1 DHK       0.041700
     16 HA          -0.9710     0.2750     3.5000 ho         1 DHK       0.444000
     17 H5           1.0030    -1.4440     1.2360 h1         1 DHK       0.035700
     18 H1           0.3290    -1.5930    -1.2050 hc         1 DHK       0.043700
     19 H6C1         1.3710     1.1330    -0.3470 hc         1 DHK       0.059700
     20 H6C2         2.2860    -0.3390    -0.6310 hc         1 DHK       0.059700
     21 HB           2.1410    -0.1870     2.8420 ho         1 DHK       0.435000
@<TRIPOS>BOND
     1     1     2 2   
     2     1     7 1   
     3     1    13 1   
     4     2     3 1   
     5     2     4 1   
     6     3    14 1   
     7     4     5 1   
     8     4     6 1   
     9     4    15 1   
    10     5    16 1   
    11     6     8 1   
    12     6    12 1   
    13     6    17 1   
    14     7     8 1   
    15     7     9 1   
    16     7    18 1   
    17     8    19 1   
    18     8    20 1   
    19     9    10 1   
    20     9    11 1   
    21    12    21 1   
@<TRIPOS>SUBSTRUCTURE
     1 DHK         1 TEMP              0 ****  ****    0 ROOT
