@<TRIPOS>MOLECULE
DHL
   11    10     1     0     0
SMALL
No Charge or Current Charge


@<TRIPOS>ATOM
      1 N           -0.0930    -0.0490     2.4700 n8         1 DHL      -0.999200
      2 CA           0.5050    -0.0250     1.1130 c3         1 DHL       0.156800
      3 CB          -0.5620    -0.0150    -0.0080 c3         1 DHL       0.085600
      4 SG           0.1550     0.0120    -1.7210 sh         1 DHL      -0.466800
      5 HN1         -0.5970     0.8320     2.6330 hn         1 DHL       0.396000
      6 HN2          0.6620    -0.0230     3.1680 hn         1 DHL       0.396000
      7 HA2          1.1400     0.8680     1.0200 h1         1 DHL       0.042700
      8 HA3          1.1430    -0.9120     0.9940 h1         1 DHL       0.042700
      9 HB2         -1.1930    -0.9080     0.0870 h1         1 DHL       0.064700
     10 HB3         -1.2040     0.8680     0.1090 h1         1 DHL       0.064700
     11 HS          -1.0330     0.0120    -2.3780 hs         1 DHL       0.216800
@<TRIPOS>BOND
     1     1     2 1   
     2     1     5 1   
     3     1     6 1   
     4     2     3 1   
     5     2     7 1   
     6     2     8 1   
     7     3     4 1   
     8     3     9 1   
     9     3    10 1   
    10     4    11 1   
@<TRIPOS>SUBSTRUCTURE
     1 DHL         1 TEMP              0 ****  ****    0 ROOT
