@<TRIPOS>MOLECULE
DHL
   11    10     1     0     0
SMALL
abcg2


@<TRIPOS>ATOM
      1 N           -0.1110    -0.0230     2.4140 n8         1 DHL      -0.999200
      2 CA           0.4930     0.0130     1.0930 c3         1 DHL       0.156800
      3 CB          -0.5970    -0.0090     0.0330 c3         1 DHL       0.085600
      4 SG           0.1790     0.0420    -1.6180 sh         1 DHL      -0.466800
      5 HN1         -0.5250     0.8780     2.6210 hn         1 DHL       0.396000
      6 HN2          0.6120    -0.1580     3.1090 hn         1 DHL       0.396000
      7 HA2          1.1430     0.8840     0.9250 h1         1 DHL       0.042700
      8 HA3          1.1220    -0.8720     0.9760 h1         1 DHL       0.042700
      9 HB2         -1.1940    -0.9160     0.1300 h1         1 DHL       0.064700
     10 HB3         -1.2560     0.8530     0.1450 h1         1 DHL       0.064700
     11 HS          -0.9420    -0.0340    -2.3410 hs         1 DHL       0.216800
@<TRIPOS>BOND
     1     1     2 1   
     2     1     5 1   
     3     1     6 1   
     4     2     3 1   
     5     2     7 1   
     6     2     8 1   
     7     3     4 1   
     8     3     9 1   
     9     3    10 1   
    10     4    11 1   
@<TRIPOS>SUBSTRUCTURE
     1 DHL         1 TEMP              0 ****  ****    0 ROOT
