@<TRIPOS>MOLECULE
DHM
   31    30     1     0     0
SMALL
No Charge or Current Charge


@<TRIPOS>ATOM
      1 C7          -1.1180     0.4080    -4.5930 c2         1 DHM      -0.321000
      2 C6          -0.3810    -0.3320    -3.7500 c2         1 DHM      -0.214200
      3 C5           0.3070     0.1840    -2.5000 c3         1 DHM      -0.028500
      4 C4          -0.2800    -0.5030    -1.2400 c3         1 DHM      -0.071400
      5 C3           0.2120     0.0800     0.1080 c3         1 DHM      -0.070400
      6 C2          -0.4740    -0.5810     1.3330 c3         1 DHM      -0.103400
      7 C1          -0.0830    -0.0140     2.7310 c3         1 DHM       0.184000
      8 C8          -0.8840    -0.7360     3.8400 c3         1 DHM      -0.100100
      9 C9           1.4350    -0.1330     3.0120 c3         1 DHM      -0.100100
     10 C10          1.8380     0.0190    -2.6290 c3         1 DHM      -0.083100
     11 O1          -0.4320     1.3700     2.7820 oh         1 DHM      -0.660000
     12 H72         -1.2800     1.4750    -4.4320 ha         1 DHM       0.161000
     13 H71         -1.5860    -0.0300    -5.4760 ha         1 DHM       0.161000
     14 H61         -0.2370    -1.3990    -3.9380 ha         1 DHM       0.164000
     15 H5           0.1060     1.2600    -2.4100 hc         1 DHM       0.049700
     16 H42         -1.3730    -0.4150    -1.2760 hc         1 DHM       0.037200
     17 H41         -0.0520    -1.5760    -1.2730 hc         1 DHM       0.037200
     18 H32          1.2960    -0.0610     0.1830 hc         1 DHM       0.046200
     19 H31          0.0240     1.1610     0.1180 hc         1 DHM       0.046200
     20 H22         -1.5610    -0.4960     1.2090 hc         1 DHM       0.039200
     21 H21         -0.2500    -1.6550     1.3160 hc         1 DHM       0.039200
     22 H83         -0.6530    -0.3180     4.8270 hc         1 DHM       0.041033
     23 H82         -1.9640    -0.6390     3.6740 hc         1 DHM       0.041033
     24 H81         -0.6400    -1.8050     3.8600 hc         1 DHM       0.041033
     25 H93          1.7680    -1.1730     2.9150 hc         1 DHM       0.041033
     26 H92          2.0210     0.4810     2.3190 hc         1 DHM       0.041033
     27 H91          1.6700     0.2040     4.0290 hc         1 DHM       0.041033
     28 H103         2.1170    -1.0420    -2.6400 hc         1 DHM       0.034033
     29 H102         2.1950     0.4760    -3.5590 hc         1 DHM       0.034033
     30 H101         2.3620     0.5060    -1.7990 hc         1 DHM       0.034033
     31 H1          -1.3770     1.4330     2.5280 ho         1 DHM       0.438000
@<TRIPOS>BOND
     1     1     2 2   
     2     1    12 1   
     3     1    13 1   
     4     2     3 1   
     5     2    14 1   
     6     3     4 1   
     7     3    10 1   
     8     3    15 1   
     9     4     5 1   
    10     4    16 1   
    11     4    17 1   
    12     5     6 1   
    13     5    18 1   
    14     5    19 1   
    15     6     7 1   
    16     6    20 1   
    17     6    21 1   
    18     7     8 1   
    19     7     9 1   
    20     7    11 1   
    21     8    22 1   
    22     8    23 1   
    23     8    24 1   
    24     9    25 1   
    25     9    26 1   
    26     9    27 1   
    27    10    28 1   
    28    10    29 1   
    29    10    30 1   
    30    11    31 1   
@<TRIPOS>SUBSTRUCTURE
     1 DHM         1 TEMP              0 ****  ****    0 ROOT
