@<TRIPOS>MOLECULE
DHM
   31    30     1     0     0
SMALL
bcc


@<TRIPOS>ATOM
      1 C7          -1.1230     0.2220    -4.5560 c2         1 DHM      -0.221000
      2 C6          -0.3250    -0.3900    -3.6890 c2         1 DHM      -0.164200
      3 C5           0.2780     0.2360    -2.4670 c3         1 DHM      -0.028500
      4 C4          -0.2940    -0.4370    -1.2130 c3         1 DHM      -0.071400
      5 C3           0.2140     0.1300     0.1080 c3         1 DHM      -0.070400
      6 C2          -0.4880    -0.5160     1.2960 c3         1 DHM      -0.103400
      7 C1          -0.0640    -0.0140     2.6830 c3         1 DHM       0.160800
      8 C8          -0.8910    -0.7360     3.7480 c3         1 DHM      -0.100100
      9 C9           1.4190    -0.2540     2.9390 c3         1 DHM      -0.100100
     10 C10          1.8030     0.1410    -2.5350 c3         1 DHM      -0.083100
     11 O1          -0.2580     1.3930     2.7890 oh         1 DHM      -0.597800
     12 H72         -1.4020     1.2630    -4.4360 ha         1 DHM       0.111000
     13 H71         -1.5310    -0.2930    -5.4160 ha         1 DHM       0.111000
     14 H61         -0.0740    -1.4370    -3.8510 ha         1 DHM       0.114000
     15 H5          -0.0050     1.2950    -2.4450 hc         1 DHM       0.049700
     16 H42         -1.3850    -0.3460    -1.2410 hc         1 DHM       0.037200
     17 H41         -0.0800    -1.5120    -1.2530 hc         1 DHM       0.037200
     18 H32          1.2920    -0.0280     0.1890 hc         1 DHM       0.046200
     19 H31          0.0570     1.2120     0.1270 hc         1 DHM       0.046200
     20 H22         -1.5710    -0.3700     1.1930 hc         1 DHM       0.039200
     21 H21         -0.3330    -1.6000     1.2590 hc         1 DHM       0.039200
     22 H83         -0.6210    -0.3990     4.7500 hc         1 DHM       0.041033
     23 H82         -1.9600    -0.5560     3.6070 hc         1 DHM       0.041033
     24 H81         -0.7340    -1.8140     3.7020 hc         1 DHM       0.041033
     25 H93          1.6580    -1.3120     2.8260 hc         1 DHM       0.041033
     26 H92          2.0500     0.3070     2.2490 hc         1 DHM       0.041033
     27 H91          1.6900     0.0420     3.9540 hc         1 DHM       0.041033
     28 H103         2.1290    -0.9030    -2.5360 hc         1 DHM       0.034033
     29 H102         2.1830     0.6080    -3.4450 hc         1 DHM       0.034033
     30 H101         2.2770     0.6350    -1.6880 hc         1 DHM       0.034033
     31 H1          -1.1880     1.5800     2.6230 ho         1 DHM       0.399000
@<TRIPOS>BOND
     1     1     2 2   
     2     1    12 1   
     3     1    13 1   
     4     2     3 1   
     5     2    14 1   
     6     3     4 1   
     7     3    10 1   
     8     3    15 1   
     9     4     5 1   
    10     4    16 1   
    11     4    17 1   
    12     5     6 1   
    13     5    18 1   
    14     5    19 1   
    15     6     7 1   
    16     6    20 1   
    17     6    21 1   
    18     7     8 1   
    19     7     9 1   
    20     7    11 1   
    21     8    22 1   
    22     8    23 1   
    23     8    24 1   
    24     9    25 1   
    25     9    26 1   
    26     9    27 1   
    27    10    28 1   
    28    10    29 1   
    29    10    30 1   
    30    11    31 1   
@<TRIPOS>SUBSTRUCTURE
     1 DHM         1 TEMP              0 ****  ****    0 ROOT
