@<TRIPOS>MOLECULE
DHO
   67    70     1     0     0
SMALL
bcc


@<TRIPOS>ATOM
      1 C1           1.3930     0.9570    -4.3690 c6         1 DHO      -0.065400
      2 C2           1.8820    -0.4660    -4.6040 c6         1 DHO      -0.110400
      3 C3           0.8520    -1.2500    -5.4030 c6         1 DHO       0.149100
      4 O3           1.2200    -2.6040    -5.5860 oh         1 DHO      -0.596800
      5 C4          -0.4940    -1.2190    -4.7050 c6         1 DHO      -0.072400
      6 C5          -0.9860     0.2080    -4.4380 c6         1 DHO      -0.047700
      7 C6          -2.3530     0.1850    -3.7550 c6         1 DHO      -0.067400
      8 C7          -2.2710    -0.3080    -2.3160 c6         1 DHO      -0.072400
      9 C8          -1.2540     0.4830    -1.4950 c6         1 DHO      -0.042700
     10 C9           0.1180     0.5230    -2.1930 c6         1 DHO      -0.043700
     11 C10          0.0380     1.0570    -3.6450 c6         1 DHO      -0.031000
     12 C11          1.1420     1.2500    -1.3180 c6         1 DHO      -0.109400
     13 C12          1.2860     0.6570     0.0890 c6         1 DHO       0.160100
     14 O12          1.8190    -0.6530     0.0460 oh         1 DHO      -0.588800
     15 C13         -0.0750     0.6240     0.7980 c5         1 DHO      -0.030000
     16 C14         -1.0760    -0.1190    -0.1090 c5         1 DHO      -0.068700
     17 C15         -2.3100    -0.2700     0.7730 c5         1 DHO      -0.073400
     18 C16         -1.7270    -0.4900     2.1830 c5         1 DHO      -0.077400
     19 C17         -0.2010    -0.2190     2.0950 c5         1 DHO      -0.045700
     20 C18         -0.5160     2.0660     1.0840 c3         1 DHO      -0.081100
     21 C19         -0.3740     2.5320    -3.6900 c3         1 DHO      -0.082100
     22 C20          0.3690     0.3260     3.4120 c3         1 DHO      -0.055700
     23 C21          1.8480     0.6930     3.3130 c3         1 DHO      -0.079100
     24 C22          0.1360    -0.7000     4.5310 c3         1 DHO      -0.057400
     25 C23          0.5500    -0.2360     5.9190 c3         1 DHO      -0.206400
     26 O25         -0.6140    -2.1180     6.8410 o          1 DHO      -0.848800
     27 C24          0.1340    -1.1520     7.0860 c          1 DHO       0.926600
     28 O26          0.5840    -0.8370     8.2090 o          1 DHO      -0.848800
     29 H11          2.1570     1.5290    -3.8380 hc         1 DHO       0.035700
     30 H12A         1.2850     1.4490    -5.3430 hc         1 DHO       0.035700
     31 H21          2.0810    -0.9780    -3.6560 hc         1 DHO       0.044700
     32 H22          2.8340    -0.4370    -5.1440 hc         1 DHO       0.044700
     33 H3           0.7410    -0.7540    -6.3810 h1         1 DHO       0.018700
     34 HO3          2.0630    -2.6230    -6.0500 ho         1 DHO       0.397000
     35 H41         -0.4220    -1.7860    -3.7720 hc         1 DHO       0.055200
     36 H42         -1.2370    -1.7350    -5.3210 hc         1 DHO       0.055200
     37 H5          -1.1090     0.6930    -5.4160 hc         1 DHO       0.034700
     38 H61         -3.0380    -0.4450    -4.3300 hc         1 DHO       0.035200
     39 H62         -2.7870     1.1880    -3.7660 hc         1 DHO       0.035200
     40 HC7         -1.9970    -1.3690    -2.2940 hc         1 DHO       0.042200
     41 H7          -3.2580    -0.2430    -1.8510 hc         1 DHO       0.042200
     42 H8          -1.6370     1.5070    -1.3860 hc         1 DHO       0.043700
     43 H9           0.4520    -0.5200    -2.2590 hc         1 DHO       0.057700
     44 H111         2.1310     1.2400    -1.7890 hc         1 DHO       0.035200
     45 H112         0.8820     2.3070    -1.2170 hc         1 DHO       0.035200
     46 H12          1.9720     1.3140     0.6410 h1         1 DHO       0.034700
     47 HO12         2.6140    -0.6320    -0.4960 ho         1 DHO       0.390000
     48 H14         -0.6680    -1.1280    -0.2620 hc         1 DHO       0.061700
     49 H151        -2.9530    -1.0920     0.4560 hc         1 DHO       0.031200
     50 H152        -2.9200     0.6370     0.7350 hc         1 DHO       0.031200
     51 H161        -1.9220    -1.5020     2.5390 hc         1 DHO       0.050700
     52 H162        -2.1980     0.1810     2.9070 hc         1 DHO       0.050700
     53 H17          0.2970    -1.1770     1.9080 hc         1 DHO       0.064700
     54 H181        -0.7810     2.6170     0.1820 hc         1 DHO       0.030700
     55 H182        -1.3830     2.1010     1.7430 hc         1 DHO       0.030700
     56 H183         0.2790     2.6250     1.5810 hc         1 DHO       0.030700
     57 H191        -0.4710     2.8590    -4.7290 hc         1 DHO       0.031033
     58 H192        -1.3260     2.7390    -3.2000 hc         1 DHO       0.031033
     59 H193         0.3760     3.1730    -3.2240 hc         1 DHO       0.031033
     60 H20         -0.1890     1.2330     3.6840 hc         1 DHO       0.032700
     61 H211         2.4390    -0.1560     2.9630 hc         1 DHO       0.023700
     62 H212         2.0180     1.5190     2.6250 hc         1 DHO       0.023700
     63 H213         2.2480     1.0020     4.2790 hc         1 DHO       0.023700
     64 H221        -0.9220    -0.9640     4.5630 hc         1 DHO       0.041200
     65 H222         0.6650    -1.6250     4.2700 hc         1 DHO       0.041200
     66 H231         1.6330    -0.0960     5.9820 hc         1 DHO       0.015200
     67 H232         0.1270     0.7590     6.1110 hc         1 DHO       0.015200
@<TRIPOS>BOND
     1     1     2 1   
     2     1    11 1   
     3     1    29 1   
     4     1    30 1   
     5     2     3 1   
     6     2    31 1   
     7     2    32 1   
     8     3     4 1   
     9     3     5 1   
    10     3    33 1   
    11     4    34 1   
    12     5     6 1   
    13     5    35 1   
    14     5    36 1   
    15     6     7 1   
    16     6    11 1   
    17     6    37 1   
    18     7     8 1   
    19     7    38 1   
    20     7    39 1   
    21     8     9 1   
    22     8    40 1   
    23     8    41 1   
    24     9    10 1   
    25     9    16 1   
    26     9    42 1   
    27    10    11 1   
    28    10    12 1   
    29    10    43 1   
    30    11    21 1   
    31    12    13 1   
    32    12    44 1   
    33    12    45 1   
    34    13    14 1   
    35    13    15 1   
    36    13    46 1   
    37    14    47 1   
    38    15    16 1   
    39    15    19 1   
    40    15    20 1   
    41    16    17 1   
    42    16    48 1   
    43    17    18 1   
    44    17    49 1   
    45    17    50 1   
    46    18    19 1   
    47    18    51 1   
    48    18    52 1   
    49    19    22 1   
    50    19    53 1   
    51    20    54 1   
    52    20    55 1   
    53    20    56 1   
    54    21    57 1   
    55    21    58 1   
    56    21    59 1   
    57    22    23 1   
    58    22    24 1   
    59    22    60 1   
    60    23    61 1   
    61    23    62 1   
    62    23    63 1   
    63    24    25 1   
    64    24    64 1   
    65    24    65 1   
    66    25    27 1   
    67    25    66 1   
    68    25    67 1   
    69    26    27 1   
    70    27    28 1   
@<TRIPOS>SUBSTRUCTURE
     1 DHO         1 TEMP              0 ****  ****    0 ROOT
