@<TRIPOS>MOLECULE
DHO
   67    70     1     0     0
SMALL
No Charge or Current Charge


@<TRIPOS>ATOM
      1 C1           1.3950     0.9900    -4.4820 c6         1 DHO      -0.065400
      2 C2           1.9320    -0.4410    -4.7250 c6         1 DHO      -0.110400
      3 C3           0.9040    -1.2750    -5.5210 c6         1 DHO       0.172300
      4 O3           1.3910    -2.6070    -5.7030 oh         1 DHO      -0.659000
      5 C4          -0.4570    -1.3030    -4.7880 c6         1 DHO      -0.072400
      6 C5          -1.0030     0.1360    -4.5070 c6         1 DHO      -0.047700
      7 C6          -2.3830     0.0700    -3.7900 c6         1 DHO      -0.067400
      8 C7          -2.2660    -0.4180    -2.3260 c6         1 DHO      -0.072400
      9 C8          -1.2590     0.4360    -1.5050 c6         1 DHO      -0.042700
     10 C9           0.1420     0.5060    -2.2170 c6         1 DHO      -0.043700
     11 C10          0.0250     1.0370    -3.7140 c6         1 DHO      -0.031000
     12 C11          1.1710     1.2990    -1.3340 c6         1 DHO      -0.109400
     13 C12          1.2920     0.7550     0.1240 c6         1 DHO       0.183300
     14 O12          1.9410    -0.5260     0.0950 oh         1 DHO      -0.651000
     15 C13         -0.1100     0.7020     0.8420 c5         1 DHO      -0.030000
     16 C14         -1.0870    -0.1270    -0.0620 c5         1 DHO      -0.068700
     17 C15         -2.3590    -0.2290     0.8160 c5         1 DHO      -0.073400
     18 C16         -1.7850    -0.4220     2.2540 c5         1 DHO      -0.077400
     19 C17         -0.2270    -0.1950     2.1470 c5         1 DHO      -0.045700
     20 C18         -0.5630     2.1820     1.1150 c3         1 DHO      -0.081100
     21 C19         -0.4470     2.5350    -3.7530 c3         1 DHO      -0.082100
     22 C20          0.4150     0.3050     3.4980 c3         1 DHO      -0.055700
     23 C21          1.9220     0.6530     3.3820 c3         1 DHO      -0.079100
     24 C22          0.1640    -0.7130     4.6600 c3         1 DHO      -0.057400
     25 C23          0.5770    -0.2390     6.0810 c3         1 DHO      -0.206400
     26 O25         -1.0950    -0.9830     7.5960 o          1 DHO      -0.743500
     27 C24          0.0190    -1.2020     7.1460 c          1 DHO       0.716000
     28 O26          0.6970    -2.1690     7.4610 o          1 DHO      -0.743500
     29 H11          2.1580     1.5890    -3.9690 hc         1 DHO       0.035700
     30 H12A         1.2740     1.4740    -5.4620 hc         1 DHO       0.035700
     31 H21          2.1690    -0.9290    -3.7710 hc         1 DHO       0.044700
     32 H22          2.8750    -0.3840    -5.2840 hc         1 DHO       0.044700
     33 H3           0.7570    -0.8010    -6.5030 h1         1 DHO       0.018700
     34 HO3          2.2360    -2.5300    -6.1960 ho         1 DHO       0.436000
     35 H41         -0.3530    -1.8770    -3.8600 hc         1 DHO       0.055200
     36 H42         -1.1820    -1.8540    -5.4030 hc         1 DHO       0.055200
     37 H5          -1.1730     0.6020    -5.4880 hc         1 DHO       0.034700
     38 H61         -3.0590    -0.5950    -4.3440 hc         1 DHO       0.035200
     39 H62         -2.8650     1.0560    -3.8090 hc         1 DHO       0.035200
     40 HC7         -1.9730    -1.4760    -2.3020 hc         1 DHO       0.042200
     41 H7          -3.2600    -0.3710    -1.8610 hc         1 DHO       0.042200
     42 H8          -1.6760     1.4460    -1.4210 hc         1 DHO       0.043700
     43 H9           0.5150    -0.5240    -2.2580 hc         1 DHO       0.057700
     44 H111         2.1690     1.2640    -1.7890 hc         1 DHO       0.035200
     45 H112         0.9060     2.3610    -1.3000 hc         1 DHO       0.035200
     46 H12          1.9360     1.4620     0.6600 h1         1 DHO       0.034700
     47 HO12         2.7830    -0.3990    -0.3900 ho         1 DHO       0.429000
     48 H14         -0.6890    -1.1390    -0.2160 hc         1 DHO       0.061700
     49 H151        -2.9970    -1.0680     0.5180 hc         1 DHO       0.031200
     50 H152        -2.9750     0.6760     0.7480 hc         1 DHO       0.031200
     51 H161        -2.0100    -1.4240     2.6350 hc         1 DHO       0.050700
     52 H162        -2.2550     0.2850     2.9480 hc         1 DHO       0.050700
     53 H17          0.2440    -1.1670     1.9590 hc         1 DHO       0.064700
     54 H181        -0.7330     2.7500     0.1950 hc         1 DHO       0.030700
     55 H182        -1.4890     2.2440     1.6960 hc         1 DHO       0.030700
     56 H183         0.1980     2.7250     1.6880 hc         1 DHO       0.030700
     57 H191        -0.6200     2.8670    -4.7830 hc         1 DHO       0.031033
     58 H192        -1.3790     2.7110    -3.2070 hc         1 DHO       0.031033
     59 H193         0.3070     3.2090    -3.3310 hc         1 DHO       0.031033
     60 H20         -0.0940     1.2340     3.7840 hc         1 DHO       0.032700
     61 H211         2.4920    -0.1920     2.9770 hc         1 DHO       0.023700
     62 H212         2.0750     1.5260     2.7430 hc         1 DHO       0.023700
     63 H213         2.3540     0.9220     4.3520 hc         1 DHO       0.023700
     64 H221        -0.9040    -0.9520     4.7010 hc         1 DHO       0.041200
     65 H222         0.6780    -1.6560     4.4330 hc         1 DHO       0.041200
     66 H231         1.6730    -0.2530     6.1090 hc         1 DHO       0.015200
     67 H232         0.1410     0.7600     6.2070 hc         1 DHO       0.015200
@<TRIPOS>BOND
     1     1     2 1   
     2     1    11 1   
     3     1    29 1   
     4     1    30 1   
     5     2     3 1   
     6     2    31 1   
     7     2    32 1   
     8     3     4 1   
     9     3     5 1   
    10     3    33 1   
    11     4    34 1   
    12     5     6 1   
    13     5    35 1   
    14     5    36 1   
    15     6     7 1   
    16     6    11 1   
    17     6    37 1   
    18     7     8 1   
    19     7    38 1   
    20     7    39 1   
    21     8     9 1   
    22     8    40 1   
    23     8    41 1   
    24     9    10 1   
    25     9    16 1   
    26     9    42 1   
    27    10    11 1   
    28    10    12 1   
    29    10    43 1   
    30    11    21 1   
    31    12    13 1   
    32    12    44 1   
    33    12    45 1   
    34    13    14 1   
    35    13    15 1   
    36    13    46 1   
    37    14    47 1   
    38    15    16 1   
    39    15    19 1   
    40    15    20 1   
    41    16    17 1   
    42    16    48 1   
    43    17    18 1   
    44    17    49 1   
    45    17    50 1   
    46    18    19 1   
    47    18    51 1   
    48    18    52 1   
    49    19    22 1   
    50    19    53 1   
    51    20    54 1   
    52    20    55 1   
    53    20    56 1   
    54    21    57 1   
    55    21    58 1   
    56    21    59 1   
    57    22    23 1   
    58    22    24 1   
    59    22    60 1   
    60    23    61 1   
    61    23    62 1   
    62    23    63 1   
    63    24    25 1   
    64    24    64 1   
    65    24    65 1   
    66    25    27 1   
    67    25    66 1   
    68    25    67 1   
    69    26    27 1   
    70    27    28 1   
@<TRIPOS>SUBSTRUCTURE
     1 DHO         1 TEMP              0 ****  ****    0 ROOT
