@<TRIPOS>MOLECULE
DHP
   41    41     1     0     0
SMALL
bcc


@<TRIPOS>ATOM
      1 N1           0.7500    -0.8240    -5.2240 ns         1 DHP      -0.617500
      2 C1          -0.9540     0.3320    -4.2390 cc         1 DHP       0.058900
      3 O3          -2.1740     0.8170    -4.1140 oh         1 DHP      -0.451100
      4 C2          -0.5580    -0.4990    -5.4260 c          1 DHP       0.678700
      5 O2          -1.2740    -0.8000    -6.3480 o          1 DHP      -0.571500
      6 C3           1.2110    -0.2800    -4.0280 c          1 DHP       0.721700
      7 O1           2.3320    -0.4110    -3.6030 o          1 DHP      -0.550500
      8 C4           0.0910     0.4650    -3.4130 cd         1 DHP      -0.216400
      9 C5           0.1910     1.1490    -2.0970 c3         1 DHP      -0.005200
     10 C6           0.1390     0.1690    -0.9210 c3         1 DHP      -0.073400
     11 C7           0.1740     0.8790     0.4260 c3         1 DHP      -0.074400
     12 C8           0.1300    -0.0830     1.6070 c3         1 DHP      -0.074400
     13 C9           0.0930     0.6260     2.9550 c3         1 DHP      -0.074400
     14 C10          0.0510    -0.3350     4.1380 c3         1 DHP      -0.074400
     15 C11         -0.0220     0.3730     5.4850 c3         1 DHP      -0.074400
     16 C12         -0.0650    -0.5860     6.6680 c3         1 DHP      -0.075400
     17 C13         -0.1470     0.1200     8.0160 c3         1 DHP      -0.074400
     18 C14         -0.1870    -0.8500     9.1880 c3         1 DHP      -0.088100
     19 HN1          1.3050    -1.3950    -5.8450 hn         1 DHP       0.355500
     20 HO3         -2.7260     0.5540    -4.8640 ho         1 DHP       0.456000
     21 H51         -0.6210     1.8720    -2.0010 hc         1 DHP       0.059200
     22 H52          1.1220     1.7210    -2.0510 hc         1 DHP       0.059200
     23 H61          0.9770    -0.5310    -0.9910 hc         1 DHP       0.045200
     24 H62         -0.7730    -0.4310    -0.9940 hc         1 DHP       0.045200
     25 H71         -0.6740     1.5710     0.4910 hc         1 DHP       0.038700
     26 H72          1.0760     1.4980     0.4910 hc         1 DHP       0.038700
     27 H81          0.9990    -0.7480     1.5650 hc         1 DHP       0.038200
     28 H82         -0.7500    -0.7290     1.5140 hc         1 DHP       0.038200
     29 H91         -0.7810     1.2850     2.9930 hc         1 DHP       0.037200
     30 H92          0.9680     1.2790     3.0490 hc         1 DHP       0.037200
     31 H101         0.9360    -0.9800     4.1120 hc         1 DHP       0.037200
     32 H102        -0.8120    -1.0010     4.0320 hc         1 DHP       0.037200
     33 H111        -0.9090     1.0170     5.5090 hc         1 DHP       0.036700
     34 H112         0.8390     1.0430     5.5920 hc         1 DHP       0.036700
     35 H121         0.8250    -1.2270     6.6470 hc         1 DHP       0.036700
     36 H122        -0.9230    -1.2590     6.5590 hc         1 DHP       0.036700
     37 H131        -1.0360     0.7580     8.0370 hc         1 DHP       0.036700
     38 H132         0.7100     0.7920     8.1240 hc         1 DHP       0.036700
     39 H141        -0.2400    -0.3270    10.1440 hc         1 DHP       0.031367
     40 H142        -1.0550    -1.5090     9.1230 hc         1 DHP       0.031367
     41 H143         0.7040    -1.4810     9.2070 hc         1 DHP       0.031367
@<TRIPOS>BOND
     1     1     4 1   
     2     1     6 1   
     3     1    19 1   
     4     2     3 1   
     5     2     4 1   
     6     2     8 2   
     7     3    20 1   
     8     4     5 2   
     9     6     7 2   
    10     6     8 1   
    11     8     9 1   
    12     9    10 1   
    13     9    21 1   
    14     9    22 1   
    15    10    11 1   
    16    10    23 1   
    17    10    24 1   
    18    11    12 1   
    19    11    25 1   
    20    11    26 1   
    21    12    13 1   
    22    12    27 1   
    23    12    28 1   
    24    13    14 1   
    25    13    29 1   
    26    13    30 1   
    27    14    15 1   
    28    14    31 1   
    29    14    32 1   
    30    15    16 1   
    31    15    33 1   
    32    15    34 1   
    33    16    17 1   
    34    16    35 1   
    35    16    36 1   
    36    17    18 1   
    37    17    37 1   
    38    17    38 1   
    39    18    39 1   
    40    18    40 1   
    41    18    41 1   
@<TRIPOS>SUBSTRUCTURE
     1 DHP         1 TEMP              0 ****  ****    0 ROOT
