@<TRIPOS>MOLECULE
DHP
   41    41     1     0     0
SMALL
No Charge or Current Charge


@<TRIPOS>ATOM
      1 N1           0.8280    -0.7270    -5.2430 ns         1 DHP      -0.483500
      2 C1          -0.9430     0.2580    -4.3470 cc         1 DHP       0.058900
      3 O3          -2.2290     0.6780    -4.2330 oh         1 DHP      -0.490100
      4 C2          -0.4850    -0.5170    -5.5250 c          1 DHP       0.536200
      5 O2          -1.0990    -0.8890    -6.5130 o          1 DHP      -0.496000
      6 C3           1.2920    -0.2110    -4.0710 c          1 DHP       0.579200
      7 O1           2.4310    -0.2900    -3.6420 o          1 DHP      -0.475000
      8 C4           0.1040     0.4430    -3.4780 cd         1 DHP      -0.216400
      9 C5           0.1600     1.1600    -2.1510 c3         1 DHP      -0.005200
     10 C6           0.0660     0.1870    -0.9560 c3         1 DHP      -0.073400
     11 C7           0.1110     0.9000     0.4130 c3         1 DHP      -0.074400
     12 C8           0.0170    -0.0760     1.6060 c3         1 DHP      -0.074400
     13 C9           0.0610     0.6370     2.9750 c3         1 DHP      -0.074400
     14 C10         -0.0330    -0.3400     4.1680 c3         1 DHP      -0.074400
     15 C11          0.0120     0.3730     5.5370 c3         1 DHP      -0.074400
     16 C12         -0.0830    -0.6040     6.7300 c3         1 DHP      -0.075400
     17 C13         -0.0380     0.1090     8.1000 c3         1 DHP      -0.074400
     18 C14         -0.1330    -0.8650     9.2900 c3         1 DHP      -0.088100
     19 HN1          1.4300    -1.2380    -5.8710 hn         1 DHP       0.355500
     20 HO3         -2.7130     0.3730    -5.0350 ho         1 DHP       0.495000
     21 H51         -0.6590     1.8870    -2.0870 hc         1 DHP       0.059200
     22 H52          1.0910     1.7360    -2.0750 hc         1 DHP       0.059200
     23 H61          0.8910    -0.5350    -1.0140 hc         1 DHP       0.045200
     24 H62         -0.8660    -0.3860    -1.0360 hc         1 DHP       0.045200
     25 H71         -0.7140     1.6210     0.4710 hc         1 DHP       0.038700
     26 H72          1.0440     1.4740     0.4900 hc         1 DHP       0.038700
     27 H81          0.8420    -0.7970     1.5480 hc         1 DHP       0.038200
     28 H82         -0.9160    -0.6500     1.5290 hc         1 DHP       0.038200
     29 H91         -0.7640     1.3570     3.0330 hc         1 DHP       0.037200
     30 H92          0.9940     1.2100     3.0520 hc         1 DHP       0.037200
     31 H101         0.7920    -1.0600     4.1100 hc         1 DHP       0.037200
     32 H102        -0.9660    -0.9130     4.0910 hc         1 DHP       0.037200
     33 H111        -0.8140     1.0940     5.5950 hc         1 DHP       0.036700
     34 H112         0.9440     0.9460     5.6140 hc         1 DHP       0.036700
     35 H121         0.7420    -1.3240     6.6720 hc         1 DHP       0.036700
     36 H122        -1.0150    -1.1770     6.6530 hc         1 DHP       0.036700
     37 H131        -0.8640     0.8290     8.1620 hc         1 DHP       0.036700
     38 H132         0.8940     0.6820     8.1810 hc         1 DHP       0.036700
     39 H141        -0.0970    -0.3150    10.2380 hc         1 DHP       0.031367
     40 H142        -1.0720    -1.4290     9.2560 hc         1 DHP       0.031367
     41 H143         0.7010    -1.5780     9.2750 hc         1 DHP       0.031367
@<TRIPOS>BOND
     1     1     4 1   
     2     1     6 1   
     3     1    19 1   
     4     2     3 1   
     5     2     4 1   
     6     2     8 2   
     7     3    20 1   
     8     4     5 2   
     9     6     7 2   
    10     6     8 1   
    11     8     9 1   
    12     9    10 1   
    13     9    21 1   
    14     9    22 1   
    15    10    11 1   
    16    10    23 1   
    17    10    24 1   
    18    11    12 1   
    19    11    25 1   
    20    11    26 1   
    21    12    13 1   
    22    12    27 1   
    23    12    28 1   
    24    13    14 1   
    25    13    29 1   
    26    13    30 1   
    27    14    15 1   
    28    14    31 1   
    29    14    32 1   
    30    15    16 1   
    31    15    33 1   
    32    15    34 1   
    33    16    17 1   
    34    16    35 1   
    35    16    36 1   
    36    17    18 1   
    37    17    37 1   
    38    17    38 1   
    39    18    39 1   
    40    18    40 1   
    41    18    41 1   
@<TRIPOS>SUBSTRUCTURE
     1 DHP         1 TEMP              0 ****  ****    0 ROOT
