@<TRIPOS>MOLECULE
DHQ
   23    24     1     0     0
SMALL
abcg2


@<TRIPOS>ATOM
      1 C1          42.9860    23.7310    20.8800 c          1 DHQ       0.574600
      2 O           44.1870    23.8010    21.1170 o          1 DHQ      -0.567000
      3 N2          42.4490    24.1660    19.7290 ns         1 DHQ      -0.503900
      4 C3          41.0220    24.2780    19.5080 c6         1 DHQ       0.112000
      5 C4          40.3110    23.0540    20.0490 c6         1 DHQ      -0.051100
      6 C4A         40.7340    22.7770    21.4630 ca         1 DHQ      -0.046300
      7 C5          39.8790    22.1490    22.3780 ca         1 DHQ      -0.084300
      8 C6          40.3380    21.9180    23.6710 ca         1 DHQ      -0.086000
      9 C7          41.6200    22.2830    24.0620 ca         1 DHQ      -0.122000
     10 C8          42.4710    22.8800    23.1510 ca         1 DHQ      -0.054000
     11 C8A         42.0290    23.1280    21.8540 ca         1 DHQ      -0.148600
     12 C9          38.4960    21.7230    21.9790 c3         1 DHQ      -0.046800
     13 HN2         43.0690    24.6320    19.0840 hn         1 DHQ       0.319500
     14 H31         40.6260    25.1800    19.9860 h1         1 DHQ       0.043200
     15 H32         40.8500    24.3750    18.4380 h1         1 DHQ       0.043200
     16 H41         39.2360    23.2190    19.9850 hc         1 DHQ       0.062200
     17 H42         40.5310    22.1840    19.4210 hc         1 DHQ       0.062200
     18 H6          39.6780    21.4410    24.3860 ha         1 DHQ       0.112000
     19 H7          41.9500    22.0930    25.0750 ha         1 DHQ       0.118000
     20 H8          43.4750    23.1580    23.4400 ha         1 DHQ       0.138000
     21 H91         37.9840    21.2340    22.8060 hc         1 DHQ       0.042367
     22 H92         37.8830    22.5710    21.6660 hc         1 DHQ       0.042367
     23 H93         38.5180    21.0230    21.1420 hc         1 DHQ       0.042367
@<TRIPOS>BOND
     1     1     2 2   
     2     1     3 1   
     3     1    11 1   
     4     3     4 1   
     5     3    13 1   
     6     4     5 1   
     7     4    14 1   
     8     4    15 1   
     9     5     6 1   
    10     5    16 1   
    11     5    17 1   
    12     6     7 ar  
    13     6    11 ar  
    14     7     8 ar  
    15     7    12 1   
    16     8     9 ar  
    17     8    18 1   
    18     9    10 ar  
    19     9    19 1   
    20    10    11 ar  
    21    10    20 1   
    22    12    21 1   
    23    12    22 1   
    24    12    23 1   
@<TRIPOS>SUBSTRUCTURE
     1 DHQ         1 TEMP              0 ****  ****    0 ROOT
