@<TRIPOS>MOLECULE
DHQ
   23    24     1     0     0
SMALL
No Charge or Current Charge


@<TRIPOS>ATOM
      1 C1          43.0030    23.8070    20.9070 c          1 DHQ       0.574600
      2 O           44.1960    23.9390    21.1310 o          1 DHQ      -0.567000
      3 N2          42.4700    24.2640    19.7290 ns         1 DHQ      -0.503900
      4 C3          41.0470    24.2510    19.3850 c6         1 DHQ       0.112000
      5 C4          40.2940    23.0760    20.0390 c6         1 DHQ      -0.051100
      6 C4A         40.7360    22.7970    21.4830 ca         1 DHQ      -0.046300
      7 C5          39.8720    22.1500    22.4040 ca         1 DHQ      -0.084300
      8 C6          40.3260    21.8760    23.7080 ca         1 DHQ      -0.086000
      9 C7          41.6280    22.2200    24.0960 ca         1 DHQ      -0.122000
     10 C8          42.4910    22.8440    23.1840 ca         1 DHQ      -0.054000
     11 C8A         42.0540    23.1410    21.8760 ca         1 DHQ      -0.148600
     12 C9          38.4560    21.7290    22.0170 c3         1 DHQ      -0.046800
     13 HN2         43.1220    24.6980    19.0860 hn         1 DHQ       0.319500
     14 H31         40.6110    25.1980    19.7350 h1         1 DHQ       0.043200
     15 H32         40.9350    24.2130    18.2920 h1         1 DHQ       0.043200
     16 H41         39.2180    23.2830    19.9790 hc         1 DHQ       0.062200
     17 H42         40.4660    22.1700    19.4430 hc         1 DHQ       0.062200
     18 H6          39.6700    21.3850    24.4250 ha         1 DHQ       0.112000
     19 H7          41.9710    21.9990    25.1050 ha         1 DHQ       0.118000
     20 H8          43.5010    23.1010    23.4990 ha         1 DHQ       0.138000
     21 H91         37.9820    21.1230    22.7980 hc         1 DHQ       0.042367
     22 H92         37.8160    22.6050    21.8510 hc         1 DHQ       0.042367
     23 H93         38.4560    21.1290    21.0990 hc         1 DHQ       0.042367
@<TRIPOS>BOND
     1     1     2 2   
     2     1     3 1   
     3     1    11 1   
     4     3     4 1   
     5     3    13 1   
     6     4     5 1   
     7     4    14 1   
     8     4    15 1   
     9     5     6 1   
    10     5    16 1   
    11     5    17 1   
    12     6     7 ar  
    13     6    11 ar  
    14     7     8 ar  
    15     7    12 1   
    16     8     9 ar  
    17     8    18 1   
    18     9    10 ar  
    19     9    19 1   
    20    10    11 ar  
    21    10    20 1   
    22    12    21 1   
    23    12    22 1   
    24    12    23 1   
@<TRIPOS>SUBSTRUCTURE
     1 DHQ         1 TEMP              0 ****  ****    0 ROOT
