@<TRIPOS>MOLECULE
DHR
   18    18     1     0     0
SMALL
No Charge or Current Charge


@<TRIPOS>ATOM
      1 N2          -0.5090    -1.7620     3.1920 n1         1 DHR      -0.447000
      2 C2          -0.3320    -0.7520     2.6350 c1         1 DHR       0.263900
      3 C3          -0.0580     0.3500     0.4130 ca         1 DHR      -0.180300
      4 C4          -0.9130     1.1330    -0.3910 ca         1 DHR      -0.045500
      5 C8           0.8030    -0.5850    -0.2090 ca         1 DHR      -0.045500
      6 C7           0.8000    -0.7320    -1.6070 ca         1 DHR      -0.178500
      7 C5          -0.9110     0.9800    -1.7880 ca         1 DHR      -0.178500
      8 C6          -0.0570     0.0500    -2.3950 ca         1 DHR       0.158100
      9 O6          -0.0650    -0.0880    -3.7510 oh         1 DHR      -0.528100
     10 C1          -0.0700     0.5290     1.9350 c3         1 DHR       0.299700
     11 O1           1.1700     1.1290     2.3490 oh         1 DHR      -0.631000
     12 H4          -1.5820     1.8620     0.0640 ha         1 DHR       0.119500
     13 H8           1.4730    -1.2020     0.3870 ha         1 DHR       0.119500
     14 H7           1.4660    -1.4570    -2.0690 ha         1 DHR       0.126500
     15 H5          -1.5740     1.5870    -2.4000 ha         1 DHR       0.126500
     16 H6           0.5890    -0.7770    -3.9960 ho         1 DHR       0.469000
     17 H1          -0.9020     1.1950     2.2010 h1         1 DHR       0.098700
     18 HO1          1.8850     0.5660     1.9830 ho         1 DHR       0.454000
@<TRIPOS>BOND
     1     1     2 3   
     2     2    10 1   
     3     3     4 ar  
     4     3     5 ar  
     5     3    10 1   
     6     4     7 ar  
     7     4    12 1   
     8     5     6 ar  
     9     5    13 1   
    10     6     8 ar  
    11     6    14 1   
    12     7     8 ar  
    13     7    15 1   
    14     8     9 1   
    15     9    16 1   
    16    10    11 1   
    17    10    17 1   
    18    11    18 1   
@<TRIPOS>SUBSTRUCTURE
     1 DHR         1 TEMP              0 ****  ****    0 ROOT
