@<TRIPOS>MOLECULE
DHR
   18    18     1     0     0
SMALL
abcg2


@<TRIPOS>ATOM
      1 N2          -0.2520    -1.7990     3.1510 n1         1 DHR      -0.447000
      2 C2          -0.1860    -0.7920     2.6000 c1         1 DHR       0.263900
      3 C3          -0.0980     0.3000     0.4060 ca         1 DHR      -0.180300
      4 C4          -0.8550     1.1420    -0.4040 ca         1 DHR      -0.045500
      5 C8           0.6990    -0.6670    -0.1980 ca         1 DHR      -0.045500
      6 C7           0.7370    -0.8000    -1.5760 ca         1 DHR      -0.178500
      7 C5          -0.8280     1.0210    -1.7820 ca         1 DHR      -0.178500
      8 C6          -0.0270     0.0470    -2.3770 ca         1 DHR       0.158100
      9 O6          -0.0340    -0.0340    -3.7180 oh         1 DHR      -0.528100
     10 C1          -0.0900     0.5060     1.8990 c3         1 DHR       0.299700
     11 O1           1.0120     1.2320     2.3720 oh         1 DHR      -0.631000
     12 H4          -1.4820     1.9030     0.0450 ha         1 DHR       0.119500
     13 H8           1.2960    -1.3430     0.4040 ha         1 DHR       0.119500
     14 H7           1.3590    -1.5650    -2.0250 ha         1 DHR       0.126500
     15 H5          -1.4250     1.6770    -2.4020 ha         1 DHR       0.126500
     16 H6           0.5490    -0.7410    -4.0180 ho         1 DHR       0.469000
     17 H1          -0.9800     1.0710     2.1860 h1         1 DHR       0.098700
     18 HO1          1.8190     0.8680     1.9900 ho         1 DHR       0.454000
@<TRIPOS>BOND
     1     1     2 3   
     2     2    10 1   
     3     3     4 ar  
     4     3     5 ar  
     5     3    10 1   
     6     4     7 ar  
     7     4    12 1   
     8     5     6 ar  
     9     5    13 1   
    10     6     8 ar  
    11     6    14 1   
    12     7     8 ar  
    13     7    15 1   
    14     8     9 1   
    15     9    16 1   
    16    10    11 1   
    17    10    17 1   
    18    11    18 1   
@<TRIPOS>SUBSTRUCTURE
     1 DHR         1 TEMP              0 ****  ****    0 ROOT
