@<TRIPOS>MOLECULE
DHS
   22    22     1     0     0
SMALL
bcc


@<TRIPOS>ATOM
      1 N           -1.4630     2.5140     0.3730 n8         1 DHS      -0.884800
      2 C1           1.0960     0.0110    -0.0130 ce         1 DHS      -0.150400
      3 C3          -1.0300     1.3060    -0.3290 c6         1 DHS       0.165700
      4 C4          -1.7420     0.0830     0.2490 c6         1 DHS       0.155100
      5 C5          -1.1110    -1.1750    -0.3200 c6         1 DHS       0.144100
      6 C6           0.3400    -1.2760     0.1380 c6         1 DHS      -0.071200
      7 C7           2.6140    -0.0310     0.1020 c          1 DHS       0.920800
      8 C2           0.4580     1.1630    -0.2140 c2         1 DHS      -0.215200
      9 O2          -3.1180     0.0880    -0.0640 oh         1 DHS      -0.603800
     10 O3          -1.8660    -2.2890     0.0990 oh         1 DHS      -0.599800
     11 O4           3.1130    -1.1510     0.3340 o          1 DHS      -0.828800
     12 O5           3.2350     1.0420    -0.0330 o          1 DHS      -0.828800
     13 HN1         -0.9040     3.2980     0.0580 hn         1 DHS       0.324300
     14 HN2         -2.4090     2.7460     0.0960 hn         1 DHS       0.324300
     15 H3          -1.2820     1.3520    -1.4030 h1         1 DHS       0.016700
     16 H4          -1.5920     0.0900     1.3400 h1         1 DHS       0.055700
     17 H5          -1.1250    -1.0950    -1.4200 h1         1 DHS       0.027700
     18 H61          0.8440    -2.0730    -0.4160 hc         1 DHS       0.060200
     19 H62          0.3590    -1.5910     1.1880 hc         1 DHS       0.060200
     20 H2           1.0430     2.0710    -0.3250 ha         1 DHS       0.143000
     21 HO2         -3.5560     0.7320     0.4990 ho         1 DHS       0.391000
     22 HO3         -1.4500    -3.0790    -0.2610 ho         1 DHS       0.393000
@<TRIPOS>BOND
     1     1     3 1   
     2     1    13 1   
     3     1    14 1   
     4     2     6 1   
     5     2     7 1   
     6     2     8 2   
     7     3     4 1   
     8     3     8 1   
     9     3    15 1   
    10     4     5 1   
    11     4     9 1   
    12     4    16 1   
    13     5     6 1   
    14     5    10 1   
    15     5    17 1   
    16     6    18 1   
    17     6    19 1   
    18     7    11 1   
    19     7    12 1   
    20     8    20 1   
    21     9    21 1   
    22    10    22 1   
@<TRIPOS>SUBSTRUCTURE
     1 DHS         1 TEMP              0 ****  ****    0 ROOT
