@<TRIPOS>MOLECULE
DHS
   22    22     1     0     0
SMALL
No Charge or Current Charge


@<TRIPOS>ATOM
      1 N           -1.4800     2.5870     0.3330 n8         1 DHS      -0.995200
      2 C1           1.1360     0.0220     0.0130 ce         1 DHS      -0.150400
      3 C3          -1.0340     1.3220    -0.2880 c6         1 DHS       0.165700
      4 C4          -1.7870     0.0700     0.2800 c6         1 DHS       0.178300
      5 C5          -1.1260    -1.2240    -0.2980 c6         1 DHS       0.167300
      6 C6           0.3580    -1.3070     0.1490 c6         1 DHS      -0.071200
      7 C7           2.6530    -0.0520     0.0980 c          1 DHS       0.710200
      8 C2           0.4720     1.1990    -0.1620 c2         1 DHS      -0.265200
      9 O2          -3.1970     0.1490    -0.0390 oh         1 DHS      -0.666000
     10 O3          -1.8090    -2.4180     0.1330 oh         1 DHS      -0.662000
     11 O4           3.1830    -1.1390     0.2830 o          1 DHS      -0.723500
     12 O5           3.2990     0.9800    -0.0170 o          1 DHS      -0.723500
     13 HN1         -0.9640     3.3600    -0.0990 hn         1 DHS       0.379500
     14 HN2         -2.4500     2.7640     0.0490 hn         1 DHS       0.379500
     15 H3          -1.2660     1.4060    -1.3600 h1         1 DHS       0.016700
     16 H4          -1.6530     0.0530     1.3720 h1         1 DHS       0.055700
     17 H5          -1.1530    -1.1570    -1.3960 h1         1 DHS       0.027700
     18 H61          0.8550    -2.0940    -0.4320 hc         1 DHS       0.060200
     19 H62          0.4050    -1.6250     1.2000 hc         1 DHS       0.060200
     20 H2           1.0290     2.1320    -0.2540 ha         1 DHS       0.193000
     21 HO2         -3.5580     0.8630     0.5290 ho         1 DHS       0.430000
     22 HO3         -1.4590    -3.1540    -0.4140 ho         1 DHS       0.432000
@<TRIPOS>BOND
     1     1     3 1   
     2     1    13 1   
     3     1    14 1   
     4     2     6 1   
     5     2     7 1   
     6     2     8 2   
     7     3     4 1   
     8     3     8 1   
     9     3    15 1   
    10     4     5 1   
    11     4     9 1   
    12     4    16 1   
    13     5     6 1   
    14     5    10 1   
    15     5    17 1   
    16     6    18 1   
    17     6    19 1   
    18     7    11 1   
    19     7    12 1   
    20     8    20 1   
    21     9    21 1   
    22    10    22 1   
@<TRIPOS>SUBSTRUCTURE
     1 DHS         1 TEMP              0 ****  ****    0 ROOT
