@<TRIPOS>MOLECULE
DHT
   51    54     1     0     0
SMALL
No Charge or Current Charge


@<TRIPOS>ATOM
      1 C1           1.5480    -0.4500    -2.5530 c6         1 DHT      -0.063400
      2 C2           1.4860    -0.1690    -4.0810 c6         1 DHT      -0.185400
      3 C3           0.0930    -0.3960    -4.6840 c          1 DHT       0.577100
      4 O3          -0.0680    -1.1120    -5.6650 o          1 DHT      -0.523100
      5 C4          -1.0980     0.1230    -3.8680 c6         1 DHT      -0.182400
      6 C5          -0.9670    -0.2100    -2.3550 c6         1 DHT      -0.048700
      7 C6          -2.1850     0.3260    -1.5580 c6         1 DHT      -0.069400
      8 C7          -2.1410    -0.1620    -0.0930 c6         1 DHT      -0.071400
      9 C8          -0.8080     0.2190     0.6060 c6         1 DHT      -0.043700
     10 C9           0.4330    -0.2890    -0.2250 c6         1 DHT      -0.047700
     11 C10          0.4070     0.2370    -1.7230 c6         1 DHT      -0.033000
     12 C11          1.7810    -0.0050     0.5370 c6         1 DHT      -0.071400
     13 C12          1.7730    -0.5510     1.9960 c6         1 DHT      -0.059400
     14 C13          0.5640    -0.0060     2.8090 c5         1 DHT      -0.039000
     15 C14         -0.7430    -0.3710     2.0450 c5         1 DHT      -0.067700
     16 C15         -1.8450     0.0320     3.0660 c5         1 DHT      -0.065400
     17 C16         -1.2180    -0.3750     4.4460 c5         1 DHT      -0.116400
     18 C17          0.2500    -0.8120     4.1150 c5         1 DHT       0.171300
     19 O17          1.1490    -0.5320     5.1880 oh         1 DHT      -0.651000
     20 C18          0.7870     1.5280     3.0740 c3         1 DHT      -0.073100
     21 C19          0.6040     1.8000    -1.7730 c3         1 DHT      -0.082100
     22 H11          1.5090    -1.5370    -2.3980 hc         1 DHT       0.046200
     23 H12          2.5340    -0.1310    -2.1900 hc         1 DHT       0.046200
     24 H21          2.2380    -0.7460    -4.6360 hc         1 DHT       0.065700
     25 H22          1.7050     0.8980    -4.2060 hc         1 DHT       0.065700
     26 H41         -2.0340    -0.2590    -4.2960 hc         1 DHT       0.066700
     27 H42         -1.0920     1.2160    -3.9570 hc         1 DHT       0.066700
     28 H5          -1.0120    -1.3080    -2.2870 hc         1 DHT       0.049700
     29 H61         -3.1170    -0.0250    -2.0220 hc         1 DHT       0.042200
     30 H62         -2.2220     1.4230    -1.5910 hc         1 DHT       0.042200
     31 H71         -2.2760    -1.2530    -0.0700 hc         1 DHT       0.040200
     32 H72         -2.9910     0.2670     0.4550 hc         1 DHT       0.040200
     33 H8          -0.7750     1.3120     0.6880 hc         1 DHT       0.053700
     34 H9           0.3450    -1.3840    -0.2750 hc         1 DHT       0.042700
     35 H111         2.0030     1.0680     0.5500 hc         1 DHT       0.040700
     36 H112         2.6200    -0.4780     0.0120 hc         1 DHT       0.040700
     37 H121         2.7170    -0.2990     2.4980 hc         1 DHT       0.044200
     38 H122         1.7320    -1.6490     1.9630 hc         1 DHT       0.044200
     39 H14         -0.7950    -1.4570     1.8880 hc         1 DHT       0.042700
     40 H151        -2.0660     1.1040     3.0260 hc         1 DHT       0.043700
     41 H152        -2.7890    -0.4920     2.8770 hc         1 DHT       0.043700
     42 H161        -1.2480     0.4680     5.1460 hc         1 DHT       0.046700
     43 H162        -1.7730    -1.1940     4.9170 hc         1 DHT       0.046700
     44 H17          0.2700    -1.8900     3.9000 h1         1 DHT       0.026700
     45 HO7          0.8330    -1.0470     5.9610 ho         1 DHT       0.441000
     46 H181         0.7950     2.1180     2.1520 hc         1 DHT       0.036033
     47 H182         0.0190     1.9670     3.7190 hc         1 DHT       0.036033
     48 H183         1.7490     1.7020     3.5720 hc         1 DHT       0.036033
     49 H191         0.5130     2.2070    -2.7840 hc         1 DHT       0.033700
     50 H192        -0.1230     2.3410    -1.1590 hc         1 DHT       0.033700
     51 H193         1.6000     2.0910    -1.4210 hc         1 DHT       0.033700
@<TRIPOS>BOND
     1     1     2 1   
     2     1    11 1   
     3     1    22 1   
     4     1    23 1   
     5     2     3 1   
     6     2    24 1   
     7     2    25 1   
     8     3     4 2   
     9     3     5 1   
    10     5     6 1   
    11     5    26 1   
    12     5    27 1   
    13     6     7 1   
    14     6    11 1   
    15     6    28 1   
    16     7     8 1   
    17     7    29 1   
    18     7    30 1   
    19     8     9 1   
    20     8    31 1   
    21     8    32 1   
    22     9    10 1   
    23     9    15 1   
    24     9    33 1   
    25    10    11 1   
    26    10    12 1   
    27    10    34 1   
    28    11    21 1   
    29    12    13 1   
    30    12    35 1   
    31    12    36 1   
    32    13    14 1   
    33    13    37 1   
    34    13    38 1   
    35    14    15 1   
    36    14    18 1   
    37    14    20 1   
    38    15    16 1   
    39    15    39 1   
    40    16    17 1   
    41    16    40 1   
    42    16    41 1   
    43    17    18 1   
    44    17    42 1   
    45    17    43 1   
    46    18    19 1   
    47    18    44 1   
    48    19    45 1   
    49    20    46 1   
    50    20    47 1   
    51    20    48 1   
    52    21    49 1   
    53    21    50 1   
    54    21    51 1   
@<TRIPOS>SUBSTRUCTURE
     1 DHT         1 TEMP              0 ****  ****    0 ROOT
