@<TRIPOS>MOLECULE
DHT
   51    54     1     0     0
SMALL
abcg2


@<TRIPOS>ATOM
      1 C1           1.4910    -0.5030    -2.4810 c6         1 DHT      -0.063400
      2 C2           1.4490    -0.2000    -3.9820 c6         1 DHT      -0.185400
      3 C3           0.0870    -0.4250    -4.5780 c          1 DHT       0.577100
      4 O3          -0.0800    -1.0230    -5.6200 o          1 DHT      -0.523100
      5 C4          -1.0520     0.1610    -3.7900 c6         1 DHT      -0.182400
      6 C5          -0.9560    -0.1740    -2.2980 c6         1 DHT      -0.048700
      7 C6          -2.1410     0.3930    -1.5290 c6         1 DHT      -0.069400
      8 C7          -2.1170    -0.0830    -0.0850 c6         1 DHT      -0.071400
      9 C8          -0.7950     0.2410     0.6050 c6         1 DHT      -0.043700
     10 C9           0.4110    -0.2730    -0.2090 c6         1 DHT      -0.047700
     11 C10          0.4030     0.2260    -1.6770 c6         1 DHT      -0.033000
     12 C11          1.7320     0.0030     0.5240 c6         1 DHT      -0.071400
     13 C12          1.7520    -0.5250     1.9610 c6         1 DHT      -0.059400
     14 C13          0.5580    -0.0130     2.7580 c5         1 DHT      -0.039000
     15 C14         -0.7240    -0.3710     1.9940 c5         1 DHT      -0.067700
     16 C15         -1.8460    -0.0990     3.0000 c5         1 DHT      -0.065400
     17 C16         -1.2030    -0.4230     4.3680 c5         1 DHT      -0.116400
     18 C17          0.2780    -0.7470     4.0710 c5         1 DHT       0.171300
     19 O17          1.1770    -0.3790     5.0880 oh         1 DHT      -0.651000
     20 C18          0.6930     1.4910     3.0160 c3         1 DHT      -0.073100
     21 C19          0.6470     1.7390    -1.7420 c3         1 DHT      -0.082100
     22 H11          1.3800    -1.5830    -2.3310 hc         1 DHT       0.046200
     23 H12          2.4850    -0.2410    -2.1160 hc         1 DHT       0.046200
     24 H21          2.1930    -0.7920    -4.5180 hc         1 DHT       0.065700
     25 H22          1.7030     0.8530    -4.1480 hc         1 DHT       0.065700
     26 H41         -2.0010    -0.1910    -4.1990 hc         1 DHT       0.066700
     27 H42         -1.0320     1.2490    -3.9280 hc         1 DHT       0.066700
     28 H5          -1.0180    -1.2680    -2.2100 hc         1 DHT       0.049700
     29 H61         -3.0720     0.0770    -2.0090 hc         1 DHT       0.042200
     30 H62         -2.1290     1.4880    -1.5730 hc         1 DHT       0.042200
     31 H71         -2.2790    -1.1680    -0.0610 hc         1 DHT       0.040200
     32 H72         -2.9460     0.3620     0.4720 hc         1 DHT       0.040200
     33 H8          -0.7310     1.3330     0.6980 hc         1 DHT       0.053700
     34 H9           0.2970    -1.3670    -0.2650 hc         1 DHT       0.042700
     35 H111         1.9310     1.0780     0.5310 hc         1 DHT       0.040700
     36 H112         2.5620    -0.4510    -0.0220 hc         1 DHT       0.040700
     37 H121         2.6950    -0.2410     2.4390 hc         1 DHT       0.044200
     38 H122         1.7280    -1.6210     1.9470 hc         1 DHT       0.044200
     39 H14         -0.6950    -1.4620     1.8440 hc         1 DHT       0.042700
     40 H151        -2.1670     0.9460     2.9580 hc         1 DHT       0.043700
     41 H152        -2.7290    -0.7060     2.7980 hc         1 DHT       0.043700
     42 H161        -1.2630     0.4330     5.0430 hc         1 DHT       0.046700
     43 H162        -1.6990    -1.2560     4.8710 hc         1 DHT       0.046700
     44 H17          0.3670    -1.8260     3.8650 h1         1 DHT       0.026700
     45 HO7          0.9660    -0.8910     5.8740 ho         1 DHT       0.441000
     46 H181         0.7340     2.0670     2.0920 hc         1 DHT       0.036033
     47 H182        -0.1370     1.8930     3.6000 hc         1 DHT       0.036033
     48 H183         1.6110     1.7040     3.5660 hc         1 DHT       0.036033
     49 H191         0.4460     2.1560    -2.7300 hc         1 DHT       0.033700
     50 H192         0.0240     2.2900    -1.0380 hc         1 DHT       0.033700
     51 H193         1.6850     1.9740    -1.5070 hc         1 DHT       0.033700
@<TRIPOS>BOND
     1     1     2 1   
     2     1    11 1   
     3     1    22 1   
     4     1    23 1   
     5     2     3 1   
     6     2    24 1   
     7     2    25 1   
     8     3     4 2   
     9     3     5 1   
    10     5     6 1   
    11     5    26 1   
    12     5    27 1   
    13     6     7 1   
    14     6    11 1   
    15     6    28 1   
    16     7     8 1   
    17     7    29 1   
    18     7    30 1   
    19     8     9 1   
    20     8    31 1   
    21     8    32 1   
    22     9    10 1   
    23     9    15 1   
    24     9    33 1   
    25    10    11 1   
    26    10    12 1   
    27    10    34 1   
    28    11    21 1   
    29    12    13 1   
    30    12    35 1   
    31    12    36 1   
    32    13    14 1   
    33    13    37 1   
    34    13    38 1   
    35    14    15 1   
    36    14    18 1   
    37    14    20 1   
    38    15    16 1   
    39    15    39 1   
    40    16    17 1   
    41    16    40 1   
    42    16    41 1   
    43    17    18 1   
    44    17    42 1   
    45    17    43 1   
    46    18    19 1   
    47    18    44 1   
    48    19    45 1   
    49    20    46 1   
    50    20    47 1   
    51    20    48 1   
    52    21    49 1   
    53    21    50 1   
    54    21    51 1   
@<TRIPOS>SUBSTRUCTURE
     1 DHT         1 TEMP              0 ****  ****    0 ROOT
