@<TRIPOS>MOLECULE
DHV
   19    18     1     0     0
SMALL
bcc


@<TRIPOS>ATOM
      1 N            2.3420    -2.8120    -2.9630 n8         1 DHV      -0.860800
      2 CA           2.3820    -4.2440    -2.6640 c3         1 DHV      -0.006500
      3 CB           2.2320    -5.0970    -3.9450 c3         1 DHV       0.192800
      4 CG1          3.2610    -4.6830    -4.9940 c3         1 DHV      -0.097100
      5 CG2          2.4700    -6.5690    -3.5840 c3         1 DHV      -0.097100
      6 OG3          0.9500    -4.9360    -4.5130 oh         1 DHV      -0.655800
      7 C            1.2630    -4.5010    -1.6210 c          1 DHV       0.933600
      8 O            0.1310    -4.8450    -2.0560 o          1 DHV      -0.825800
      9 OXT          1.5510    -4.2990    -0.4330 o          1 DHV      -0.825800
     10 H            2.3820    -2.2970    -2.0920 hn         1 DHV       0.314300
     11 H2           3.1840    -2.5460    -3.4600 hn         1 DHV       0.314300
     12 HA           3.3360    -4.5390    -2.2010 h1         1 DHV       0.004700
     13 HG11         3.2200    -5.3540    -5.8550 hc         1 DHV       0.022533
     14 HG12         3.0840    -3.6710    -5.3590 hc         1 DHV       0.022533
     15 HG13         4.2740    -4.7290    -4.5890 hc         1 DHV       0.022533
     16 HG21         2.3680    -7.1960    -4.4720 hc         1 DHV       0.022533
     17 HG22         3.4730    -6.7280    -3.1820 hc         1 DHV       0.022533
     18 HG23         1.7540    -6.9250    -2.8420 hc         1 DHV       0.022533
     19 HOG3         0.3630    -4.9260    -3.7190 ho         1 DHV       0.473000
@<TRIPOS>BOND
     1     1     2 1   
     2     1    10 1   
     3     1    11 1   
     4     2     3 1   
     5     2     7 1   
     6     2    12 1   
     7     3     4 1   
     8     3     5 1   
     9     3     6 1   
    10     4    13 1   
    11     4    14 1   
    12     4    15 1   
    13     5    16 1   
    14     5    17 1   
    15     5    18 1   
    16     6    19 1   
    17     7     8 1   
    18     7     9 1   
@<TRIPOS>SUBSTRUCTURE
     1 DHV         1 TEMP              0 ****  ****    0 ROOT
