@<TRIPOS>MOLECULE
DHV
   19    18     1     0     0
SMALL
No Charge or Current Charge


@<TRIPOS>ATOM
      1 N            2.3040    -2.6920    -2.9990 n8         1 DHV      -0.860800
      2 CA           2.3240    -4.1720    -2.6540 c3         1 DHV      -0.006500
      3 CB           2.2540    -5.0950    -3.9270 c3         1 DHV       0.192800
      4 CG1          3.3120    -4.7010    -4.9930 c3         1 DHV      -0.097100
      5 CG2          2.4430    -6.5890    -3.5540 c3         1 DHV      -0.097100
      6 OG3          0.9580    -4.9570    -4.5170 oh         1 DHV      -0.655800
      7 C            1.2510    -4.6280    -1.5780 c          1 DHV       0.933600
      8 O            0.0840    -4.7590    -1.9440 o          1 DHV      -0.825800
      9 OXT          1.6040    -4.7770    -0.4130 o          1 DHV      -0.825800
     10 H            2.5430    -2.1420    -2.1670 hn         1 DHV       0.314300
     11 H2           3.0500    -2.4910    -3.6720 hn         1 DHV       0.314300
     12 HA           3.3080    -4.3460    -2.1990 h1         1 DHV       0.004700
     13 HG11         3.2790    -5.3860    -5.8490 hc         1 DHV       0.022533
     14 HG12         3.1440    -3.6880    -5.3780 hc         1 DHV       0.022533
     15 HG13         4.3230    -4.7420    -4.5690 hc         1 DHV       0.022533
     16 HG21         2.4220    -7.2220    -4.4510 hc         1 DHV       0.022533
     17 HG22         3.4090    -6.7430    -3.0580 hc         1 DHV       0.022533
     18 HG23         1.6550    -6.9470    -2.8820 hc         1 DHV       0.022533
     19 HOG3         0.3540    -4.8200    -3.7410 ho         1 DHV       0.473000
@<TRIPOS>BOND
     1     1     2 1   
     2     1    10 1   
     3     1    11 1   
     4     2     3 1   
     5     2     7 1   
     6     2    12 1   
     7     3     4 1   
     8     3     5 1   
     9     3     6 1   
    10     4    13 1   
    11     4    14 1   
    12     4    15 1   
    13     5    16 1   
    14     5    17 1   
    15     5    18 1   
    16     6    19 1   
    17     7     8 1   
    18     7     9 1   
@<TRIPOS>SUBSTRUCTURE
     1 DHV         1 TEMP              0 ****  ****    0 ROOT
