@<TRIPOS>MOLECULE
DHY
   19    19     1     0     0
SMALL
No Charge or Current Charge


@<TRIPOS>ATOM
      1 C1           0.2050    -0.6710     0.5240 ca         1 DHY       0.015700
      2 C2          -0.9980    -0.6820    -0.2090 ca         1 DHY      -0.128000
      3 C3          -0.9890    -0.3940    -1.5830 ca         1 DHY       0.108100
      4 C4           0.2210    -0.0920    -2.2400 ca         1 DHY      -0.001900
      5 C5           1.4230    -0.0790    -1.5140 ca         1 DHY      -0.160000
      6 C6           1.4130    -0.3670    -0.1370 ca         1 DHY      -0.103000
      7 C7           0.2020    -0.9870     2.0160 c3         1 DHY      -0.187100
      8 C8           0.0370     0.3140     2.8150 c          1 DHY       0.725000
      9 O1           1.0430     0.9500     3.0930 o          1 DHY      -0.725500
     10 O2          -1.0970     0.7130     3.0370 o          1 DHY      -0.725500
     11 O3          -2.1490    -0.4030    -2.2980 oh         1 DHY      -0.551100
     12 O4           0.2260     0.1890    -3.5800 oh         1 DHY      -0.576100
     13 H2          -1.9380    -0.9110     0.2860 ha         1 DHY       0.125000
     14 H5           2.3640     0.1540    -2.0080 ha         1 DHY       0.090000
     15 H6           2.3480    -0.3540     0.4190 ha         1 DHY       0.114000
     16 H71          1.1670    -1.4530     2.2490 hc         1 DHY       0.031700
     17 H72         -0.6480    -1.6540     2.2030 hc         1 DHY       0.031700
     18 HO3         -1.8900    -0.1750    -3.2200 ho         1 DHY       0.463000
     19 HO4          1.1500     0.3740    -3.8610 ho         1 DHY       0.455000
@<TRIPOS>BOND
     1     1     2 ar  
     2     1     6 ar  
     3     1     7 1   
     4     2     3 ar  
     5     2    13 1   
     6     3     4 ar  
     7     3    11 1   
     8     4     5 ar  
     9     4    12 1   
    10     5     6 ar  
    11     5    14 1   
    12     6    15 1   
    13     7     8 1   
    14     7    16 1   
    15     7    17 1   
    16     8     9 1   
    17     8    10 1   
    18    11    18 1   
    19    12    19 1   
@<TRIPOS>SUBSTRUCTURE
     1 DHY         1 TEMP              0 ****  ****    0 ROOT
