@<TRIPOS>MOLECULE
DHY
   19    19     1     0     0
SMALL
bcc


@<TRIPOS>ATOM
      1 C1           0.1900    -0.6640     0.5010 ca         1 DHY       0.015700
      2 C2          -0.9660    -0.6170    -0.2780 ca         1 DHY      -0.146000
      3 C3          -0.9180    -0.3320    -1.6340 ca         1 DHY       0.108100
      4 C4           0.3190    -0.0930    -2.2440 ca         1 DHY      -0.001900
      5 C5           1.4730    -0.1460    -1.4810 ca         1 DHY      -0.178000
      6 C6           1.4090    -0.4260    -0.1210 ca         1 DHY      -0.121000
      7 C7           0.0990    -0.9390     1.9700 c3         1 DHY      -0.187100
      8 C8          -0.0170     0.3340     2.8470 c          1 DHY       0.935600
      9 O1           0.4910     1.3780     2.4010 o          1 DHY      -0.830800
     10 O2          -0.5790     0.1850     3.9500 o          1 DHY      -0.830800
     11 O3          -2.0740    -0.2950    -2.3350 oh         1 DHY      -0.512100
     12 O4           0.2930     0.1750    -3.5750 oh         1 DHY      -0.537100
     13 H2          -1.9330    -0.8150     0.1740 ha         1 DHY       0.143000
     14 H5           2.4340     0.0320    -1.9520 ha         1 DHY       0.108000
     15 H6           2.3260    -0.4690     0.4540 ha         1 DHY       0.132000
     16 H71          0.9990    -1.4680     2.3010 hc         1 DHY       0.031700
     17 H72         -0.7390    -1.6070     2.1820 hc         1 DHY       0.031700
     18 HO3         -1.8990    -0.0930    -3.2610 ho         1 DHY       0.424000
     19 HO4          1.1830     0.3330    -3.9060 ho         1 DHY       0.416000
@<TRIPOS>BOND
     1     1     2 ar  
     2     1     6 ar  
     3     1     7 1   
     4     2     3 ar  
     5     2    13 1   
     6     3     4 ar  
     7     3    11 1   
     8     4     5 ar  
     9     4    12 1   
    10     5     6 ar  
    11     5    14 1   
    12     6    15 1   
    13     7     8 1   
    14     7    16 1   
    15     7    17 1   
    16     8     9 1   
    17     8    10 1   
    18    11    18 1   
    19    12    19 1   
@<TRIPOS>SUBSTRUCTURE
     1 DHY         1 TEMP              0 ****  ****    0 ROOT
