@<TRIPOS>MOLECULE
DHZ
   30    31     1     0     0
SMALL
bcc


@<TRIPOS>ATOM
      1 N1          -0.1950     0.3120    -1.2070 n          1 DHZ      -0.393000
      2 C2           0.7740    -0.6320    -1.5060 c          1 DHZ       0.839500
      3 O2           1.2440    -1.3740    -0.6550 o          1 DHZ      -0.681500
      4 N3           1.1860    -0.6780    -2.7900 ns         1 DHZ      -0.584900
      5 C4           0.6460     0.0250    -3.9370 c6         1 DHZ       0.171200
      6 C5          -0.2620     1.1090    -3.4710 c2         1 DHZ      -0.282200
      7 C6          -0.6230     1.1990    -2.1990 c2         1 DHZ       0.021600
      8 C1          -0.6440     0.5300     0.1440 c5         1 DHZ       0.327500
      9 C7          -1.2520    -0.6650     0.8790 c5         1 DHZ       0.112100
     10 O1          -2.5610    -0.8600     0.4320 oh         1 DHZ      -0.565800
     11 C3          -1.0980    -0.2170     2.3340 c5         1 DHZ       0.074100
     12 O3          -2.1500     0.6660     2.6330 oh         1 DHZ      -0.572800
     13 C8           0.2630     0.4850     2.2860 c5         1 DHZ       0.116100
     14 O4           0.3950     1.0030     0.9640 os         1 DHZ      -0.386600
     15 C9           1.4070    -0.4460     2.6330 c3         1 DHZ       0.126400
     16 O5           2.6150     0.2700     2.5350 oh         1 DHZ      -0.580800
     17 HN3          1.8710    -1.3940    -2.9760 hn         1 DHZ       0.325500
     18 H41          0.1150    -0.6700    -4.5980 h1         1 DHZ       0.039200
     19 H42          1.4710     0.4380    -4.5240 h1         1 DHZ       0.039200
     20 H5          -0.6350     1.8230    -4.1900 ha         1 DHZ       0.148000
     21 H6          -1.2910     1.9780    -1.8580 h4         1 DHZ       0.149000
     22 H1          -1.4290     1.2920     0.0580 h2         1 DHZ       0.078700
     23 H2          -0.6380    -1.5550     0.7310 h1         1 DHZ       0.077700
     24 HO2         -2.8780    -1.7010     0.7730 ho         1 DHZ       0.411000
     25 H3          -1.0850    -1.0690     3.0270 h1         1 DHZ       0.049700
     26 HO3         -2.0050     1.0180     3.5170 ho         1 DHZ       0.405000
     27 H4           0.2800     1.3270     2.9890 h1         1 DHZ       0.072700
     28 H5'1         1.4000    -1.3170     1.9690 h1         1 DHZ       0.029200
     29 H5'2         1.2350    -0.8130     3.6540 h1         1 DHZ       0.029200
     30 HO5          3.3390    -0.3500     2.6590 ho         1 DHZ       0.405000
@<TRIPOS>BOND
     1     1     2 1   
     2     1     7 1   
     3     1     8 1   
     4     2     3 2   
     5     2     4 1   
     6     4     5 1   
     7     4    17 1   
     8     5     6 1   
     9     5    18 1   
    10     5    19 1   
    11     6     7 2   
    12     6    20 1   
    13     7    21 1   
    14     8     9 1   
    15     8    14 1   
    16     8    22 1   
    17     9    10 1   
    18     9    11 1   
    19     9    23 1   
    20    10    24 1   
    21    11    12 1   
    22    11    13 1   
    23    11    25 1   
    24    12    26 1   
    25    13    14 1   
    26    13    15 1   
    27    13    27 1   
    28    15    16 1   
    29    15    28 1   
    30    15    29 1   
    31    16    30 1   
@<TRIPOS>SUBSTRUCTURE
     1 DHZ         1 TEMP              0 ****  ****    0 ROOT
