@<TRIPOS>MOLECULE
DHZ
   30    31     1     0     0
SMALL
No Charge or Current Charge


@<TRIPOS>ATOM
      1 N1          -0.1370     0.3410    -1.2480 n          1 DHZ      -0.326000
      2 C2           1.0200    -0.4060    -1.5670 c          1 DHZ       0.630000
      3 O2           1.7150    -0.9740    -0.7420 o          1 DHZ      -0.606000
      4 N3           1.3440    -0.5150    -2.8990 ns         1 DHZ      -0.517900
      5 C4           0.6290     0.0780    -4.0310 c6         1 DHZ       0.171200
      6 C5          -0.6140     0.7940    -3.5590 c2         1 DHZ      -0.332200
      7 C6          -0.9350     0.9020    -2.2660 c2         1 DHZ      -0.028400
      8 C1          -0.5180     0.6240     0.1640 c5         1 DHZ       0.350700
      9 C7          -1.1720    -0.6530     0.7830 c5         1 DHZ       0.135300
     10 O1          -2.5330    -0.8930     0.3870 oh         1 DHZ      -0.688000
     11 C3          -1.1160    -0.2180     2.2740 c5         1 DHZ       0.097300
     12 O3          -2.1630     0.7330     2.5580 oh         1 DHZ      -0.695000
     13 C8           0.3250     0.4140     2.3480 c5         1 DHZ       0.139300
     14 O4           0.5950     0.9540     1.0200 os         1 DHZ      -0.433000
     15 C9           1.4310    -0.6160     2.7280 c3         1 DHZ       0.149600
     16 O5           2.6810     0.0370     3.0200 oh         1 DHZ      -0.703000
     17 HN3          2.1700    -1.0650    -3.0960 hn         1 DHZ       0.325500
     18 H41          0.3600    -0.7210    -4.7380 h1         1 DHZ       0.039200
     19 H42          1.3000     0.7810    -4.5440 h1         1 DHZ       0.039200
     20 H5          -1.2470     1.2310    -4.3330 ha         1 DHZ       0.198000
     21 H6          -1.8350     1.4190    -1.9230 h4         1 DHZ       0.199000
     22 H1          -1.2310     1.4580     0.1610 h2         1 DHZ       0.078700
     23 H2          -0.5490    -1.5410     0.6040 h1         1 DHZ       0.077700
     24 HO2         -3.0560    -0.3340     1.0140 ho         1 DHZ       0.510000
     25 H3          -1.2050    -1.0870     2.9420 h1         1 DHZ       0.049700
     26 HO3         -2.1230     0.9440     3.5220 ho         1 DHZ       0.504000
     27 H4           0.3540     1.2320     3.0800 h1         1 DHZ       0.072700
     28 H5'1         1.5520    -1.3380     1.9100 h1         1 DHZ       0.029200
     29 H5'2         1.0940    -1.1760     3.6110 h1         1 DHZ       0.029200
     30 HO5          3.3600    -0.6700     3.1220 ho         1 DHZ       0.504000
@<TRIPOS>BOND
     1     1     2 1   
     2     1     7 1   
     3     1     8 1   
     4     2     3 2   
     5     2     4 1   
     6     4     5 1   
     7     4    17 1   
     8     5     6 1   
     9     5    18 1   
    10     5    19 1   
    11     6     7 2   
    12     6    20 1   
    13     7    21 1   
    14     8     9 1   
    15     8    14 1   
    16     8    22 1   
    17     9    10 1   
    18     9    11 1   
    19     9    23 1   
    20    10    24 1   
    21    11    12 1   
    22    11    13 1   
    23    11    25 1   
    24    12    26 1   
    25    13    14 1   
    26    13    15 1   
    27    13    27 1   
    28    15    16 1   
    29    15    28 1   
    30    15    29 1   
    31    16    30 1   
@<TRIPOS>SUBSTRUCTURE
     1 DHZ         1 TEMP              0 ****  ****    0 ROOT
