@<TRIPOS>MOLECULE
DI0
  136   139     1     0     0
SMALL
abcg2


@<TRIPOS>ATOM
      1 CCB         73.2530   -56.0020    -3.4750 c3         1 DI0       0.144900
      2 OBK         73.5960   -55.0740    -4.4710 os         1 DI0      -0.442000
      3 CAN         73.0970   -53.7600    -4.3440 c6         1 DI0       0.159000
      4 CBQ         73.6020   -53.0910    -3.0640 c3         1 DI0      -0.124100
      5 CAT         71.5670   -53.6880    -4.3910 c6         1 DI0      -0.127400
      6 CAX         73.6050   -53.0030    -5.5840 c6         1 DI0       0.153300
      7 OBL         75.0050   -53.0150    -5.6980 oh         1 DI0      -0.704000
      8 CAZ         73.0260   -53.6020    -6.8650 c6         1 DI0       0.182300
      9 CBU         73.4100   -52.8110    -8.1000 c3         1 DI0      -0.086100
     10 OAV         71.6050   -53.5880    -6.8150 os         1 DI0      -0.479000
     11 CAR         70.9630   -54.1500    -5.7070 c6         1 DI0       0.394300
     12 OAY         70.9350   -55.5520    -5.7340 os         1 DI0      -0.475000
     13 CAC         70.0540   -56.1420    -6.6700 c3         1 DI0       0.184300
     14 CAJ         70.6740   -57.4760    -7.1310 c3         1 DI0      -0.064700
     15 CBP         71.0420   -58.3750    -5.9530 c3         1 DI0      -0.081100
     16 CAF         68.6380   -56.3860    -6.0800 c3         1 DI0      -0.144700
     17 CBN         68.0820   -55.2790    -5.1810 c3         1 DI0      -0.086100
     18 CAE         67.6530   -56.5820    -7.2140 c          1 DI0       0.597100
     19 OBF         67.3990   -55.7370    -8.0350 o          1 DI0      -0.472000
     20 OAL         67.0730   -57.7770    -7.1630 os         1 DI0      -0.464100
     21 CAW         66.0250   -58.1410    -8.0760 c3         1 DI0       0.147300
     22 CBT         64.7570   -58.3720    -7.2650 c3         1 DI0      -0.086400
     23 CCF         64.3610   -57.1610    -6.4280 c3         1 DI0      -0.089100
     24 CAD         66.5150   -59.3800    -8.8820 c3         1 DI0       0.192000
     25 CBM         67.1850   -60.4000    -7.9630 c3         1 DI0      -0.122100
     26 OBH         65.4090   -59.9460    -9.5500 oh         1 DI0      -0.698000
     27 CAA         67.5110   -58.9020    -9.9510 c6         1 DI0       0.195300
     28 CAI         68.3470   -59.9670   -10.6650 c6         1 DI0      -0.087700
     29 CBO         67.5570   -61.0620   -11.3780 c3         1 DI0      -0.078100
     30 OAS         66.7810   -58.1550   -10.9050 os         1 DI0      -0.449000
     31 CBA         67.5460   -57.5120   -11.8930 c6         1 DI0       0.416500
     32 CBS         66.9690   -57.8920   -13.2550 c3         1 DI0       0.107600
     33 OBW         67.7310   -57.2270   -14.2270 os         1 DI0      -0.476000
     34 CCD         67.3400   -57.5190   -15.5460 c3         1 DI0       0.127600
     35 CCC         68.2920   -56.8770   -16.5340 c3         1 DI0       0.162600
     36 OBX         68.1850   -55.4810   -16.6520 os         1 DI0      -0.455000
     37 CCE         68.7880   -54.7370   -15.6190 c3         1 DI0       0.148900
     38 NAQ         68.9560   -57.8180   -11.7400 n7         1 DI0      -0.909400
     39 CAK         69.3020   -59.2390   -11.6520 c6         1 DI0       0.173500
     40 CBB         70.7930   -59.3770   -11.2910 c3         1 DI0      -0.058700
     41 CBV         71.2220   -60.8300   -11.5000 c3         1 DI0      -0.091100
     42 CBC         71.2010   -58.9240    -9.8730 c3         1 DI0      -0.100400
     43 CAP         71.4450   -57.4270    -9.5920 c3         1 DI0       0.199000
     44 CBR         72.5410   -56.8960   -10.5210 c3         1 DI0      -0.105100
     45 OBJ         70.2920   -56.6290    -9.7360 oh         1 DI0      -0.774000
     46 CAH         71.8580   -57.2280    -8.1100 c3         1 DI0       0.184300
     47 OAM         72.9840   -58.0550    -7.8420 os         1 DI0      -0.468000
     48 CAB         74.0730   -57.4670    -7.2210 c6         1 DI0       0.357300
     49 CAG         74.9380   -58.5940    -6.6270 c6         1 DI0       0.144300
     50 OBI         74.2280   -59.2370    -5.5970 oh         1 DI0      -0.729000
     51 OAU         74.7750   -56.7250    -8.1760 os         1 DI0      -0.486000
     52 CBG         75.8880   -56.0490    -7.6130 c6         1 DI0       0.171300
     53 CCA         76.5090   -55.1890    -8.6920 c3         1 DI0      -0.083100
     54 CBD         76.8640   -57.0720    -7.0640 c6         1 DI0      -0.110400
     55 CAO         76.2220   -58.0120    -6.0390 c6         1 DI0       0.204500
     56 NBE         77.2300   -58.9950    -5.6350 n3         1 DI0      -0.742600
     57 CBZ         78.0940   -58.4560    -4.6070 c3         1 DI0       0.169600
     58 CBY         76.8180   -60.3370    -5.2810 c3         1 DI0       0.169600
     59 H1          73.6860   -56.9570    -3.7710 h1         1 DI0       0.032367
     60 H2          73.6580   -55.7360    -2.4920 h1         1 DI0       0.032367
     61 H3          72.1740   -56.1470    -3.3760 h1         1 DI0       0.032367
     62 H4          73.1180   -53.4990    -2.1760 hc         1 DI0       0.043033
     63 H5          74.6780   -53.2230    -2.9400 hc         1 DI0       0.043033
     64 H6          73.3920   -52.0200    -3.0810 hc         1 DI0       0.043033
     65 H7          71.2790   -52.6430    -4.2470 hc         1 DI0       0.060200
     66 H8          71.1110   -54.2360    -3.5630 hc         1 DI0       0.060200
     67 H9          73.2310   -51.9700    -5.4990 h1         1 DI0       0.037700
     68 H10         75.3720   -52.4290    -5.0290 ho         1 DI0       0.502000
     69 H11         73.3900   -54.6270    -6.9790 h1         1 DI0       0.069700
     70 H12         74.4890   -52.8130    -8.2400 hc         1 DI0       0.046367
     71 H13         72.9620   -53.2550    -8.9900 hc         1 DI0       0.046367
     72 H14         73.0780   -51.7730    -8.0270 hc         1 DI0       0.046367
     73 H15         69.9460   -53.7570    -5.7850 h2         1 DI0       0.067700
     74 H16         69.9540   -55.4890    -7.5420 h1         1 DI0       0.092700
     75 H17         69.8850   -58.0000    -7.6810 hc         1 DI0       0.058700
     76 H18         70.1970   -58.5120    -5.2790 hc         1 DI0       0.035033
     77 H19         71.3130   -59.3710    -6.3040 hc         1 DI0       0.035033
     78 H20         71.8630   -57.9750    -5.3630 hc         1 DI0       0.035033
     79 H21         68.6560   -57.2970    -5.4800 hc         1 DI0       0.076700
     80 H22         67.1110   -55.5770    -4.7820 hc         1 DI0       0.044033
     81 H23         68.7360   -55.1080    -4.3270 hc         1 DI0       0.044033
     82 H24         67.9450   -54.3380    -5.7110 hc         1 DI0       0.044033
     83 H25         65.8450   -57.3170    -8.7690 h1         1 DI0       0.095700
     84 H26         63.9500   -58.5910    -7.9650 hc         1 DI0       0.048200
     85 H27         64.8590   -59.2450    -6.6130 hc         1 DI0       0.048200
     86 H28         63.3790   -57.3150    -5.9800 hc         1 DI0       0.037033
     87 H29         65.0610   -56.9810    -5.6120 hc         1 DI0       0.037033
     88 H30         64.3090   -56.2550    -7.0340 hc         1 DI0       0.037033
     89 H31         66.5600   -60.6330    -7.0990 hc         1 DI0       0.048033
     90 H32         67.3620   -61.3340    -8.4950 hc         1 DI0       0.048033
     91 H33         68.1450   -60.0520    -7.5800 hc         1 DI0       0.048033
     92 H34         64.9120   -60.4820    -8.9240 ho         1 DI0       0.499000
     93 H35         68.2140   -58.2450    -9.4240 h1         1 DI0       0.064700
     94 H36         68.9610   -60.4610    -9.9070 hc         1 DI0       0.059700
     95 H37         67.0170   -61.7030   -10.6850 hc         1 DI0       0.037367
     96 H38         66.8330   -60.6580   -12.0840 hc         1 DI0       0.037367
     97 H39         68.2460   -61.6940   -11.9400 hc         1 DI0       0.037367
     98 H40         67.4510   -56.4230   -11.7780 h2         1 DI0       0.083700
     99 H41         65.9110   -57.5970   -13.2980 h1         1 DI0       0.041200
    100 H42         67.0070   -58.9790   -13.4030 h1         1 DI0       0.041200
    101 H43         66.3130   -57.1780   -15.7370 h1         1 DI0       0.032200
    102 H44         67.3550   -58.6040   -15.7210 h1         1 DI0       0.032200
    103 H45         68.0610   -57.2890   -17.5190 h1         1 DI0       0.049200
    104 H46         69.3220   -57.1750   -16.2910 h1         1 DI0       0.049200
    105 H47         68.9150   -53.7160   -15.9800 h1         1 DI0       0.032367
    106 H48         68.1860   -54.7070   -14.7080 h1         1 DI0       0.032367
    107 H49         69.7770   -55.1310   -15.3570 h1         1 DI0       0.032367
    108 H50         69.4600   -57.3930   -12.5120 hn         1 DI0       0.448000
    109 H52         69.1860   -59.7070   -12.6390 h1         1 DI0       0.033700
    110 H53         71.3450   -58.7790   -12.0260 hc         1 DI0       0.051700
    111 H54         72.3000   -60.9360   -11.3710 hc         1 DI0       0.035033
    112 H55         70.7450   -61.5030   -10.7840 hc         1 DI0       0.035033
    113 H56         70.9720   -61.1840   -12.5020 hc         1 DI0       0.035033
    114 H57         70.4890   -59.3330    -9.1490 hc         1 DI0       0.050200
    115 H58         72.1420   -59.4280    -9.6440 hc         1 DI0       0.050200
    116 H59         73.4400   -57.5100   -10.5020 hc         1 DI0       0.040033
    117 H60         72.1840   -56.8640   -11.5530 hc         1 DI0       0.040033
    118 H61         72.8270   -55.8810   -10.2410 hc         1 DI0       0.040033
    119 H62         69.7360   -57.0060   -10.4620 ho         1 DI0       0.554000
    120 H63         72.1610   -56.1800    -8.0130 h1         1 DI0       0.070700
    121 H64         73.7500   -56.8020    -6.4000 h2         1 DI0       0.055700
    122 H65         75.1880   -59.2910    -7.4430 h1         1 DI0       0.057700
    123 H66         73.4490   -59.6520    -5.9800 ho         1 DI0       0.516000
    124 H67         75.5440   -55.4030    -6.7930 h1         1 DI0       0.059700
    125 H68         77.3440   -54.6210    -8.2810 hc         1 DI0       0.042367
    126 H69         76.8870   -55.7980    -9.5150 hc         1 DI0       0.042367
    127 H70         75.7900   -54.4770    -9.0970 hc         1 DI0       0.042367
    128 H71         77.2620   -57.6730    -7.8880 hc         1 DI0       0.057700
    129 H72         77.7120   -56.5490    -6.6150 hc         1 DI0       0.057700
    130 H73         75.9030   -57.4110    -5.1680 h1         1 DI0       0.041700
    131 H75         78.9450   -59.1200    -4.4470 h1         1 DI0       0.027867
    132 H76         78.4960   -57.4840    -4.8960 h1         1 DI0       0.027867
    133 H77         77.5840   -58.3270    -3.6390 h1         1 DI0       0.027867
    134 H78         77.7190   -60.9400    -5.1480 h1         1 DI0       0.027867
    135 H79         76.2370   -60.4060    -4.3520 h1         1 DI0       0.027867
    136 H80         76.2420   -60.8030    -6.0780 h1         1 DI0       0.027867
@<TRIPOS>BOND
     1     1     2 1   
     2     1    59 1   
     3     1    60 1   
     4     1    61 1   
     5     2     3 1   
     6     3     4 1   
     7     3     5 1   
     8     3     6 1   
     9     4    62 1   
    10     4    63 1   
    11     4    64 1   
    12     5    11 1   
    13     5    65 1   
    14     5    66 1   
    15     6     7 1   
    16     6     8 1   
    17     6    67 1   
    18     7    68 1   
    19     8     9 1   
    20     8    10 1   
    21     8    69 1   
    22     9    70 1   
    23     9    71 1   
    24     9    72 1   
    25    10    11 1   
    26    11    12 1   
    27    11    73 1   
    28    12    13 1   
    29    13    14 1   
    30    13    16 1   
    31    13    74 1   
    32    14    15 1   
    33    14    46 1   
    34    14    75 1   
    35    15    76 1   
    36    15    77 1   
    37    15    78 1   
    38    16    17 1   
    39    16    18 1   
    40    16    79 1   
    41    17    80 1   
    42    17    81 1   
    43    17    82 1   
    44    18    19 2   
    45    18    20 1   
    46    20    21 1   
    47    21    22 1   
    48    21    24 1   
    49    21    83 1   
    50    22    23 1   
    51    22    84 1   
    52    22    85 1   
    53    23    86 1   
    54    23    87 1   
    55    23    88 1   
    56    24    25 1   
    57    24    26 1   
    58    24    27 1   
    59    25    89 1   
    60    25    90 1   
    61    25    91 1   
    62    26    92 1   
    63    27    28 1   
    64    27    30 1   
    65    27    93 1   
    66    28    29 1   
    67    28    39 1   
    68    28    94 1   
    69    29    95 1   
    70    29    96 1   
    71    29    97 1   
    72    30    31 1   
    73    31    32 1   
    74    31    38 1   
    75    31    98 1   
    76    32    33 1   
    77    32    99 1   
    78    32   100 1   
    79    33    34 1   
    80    34    35 1   
    81    34   101 1   
    82    34   102 1   
    83    35    36 1   
    84    35   103 1   
    85    35   104 1   
    86    36    37 1   
    87    37   105 1   
    88    37   106 1   
    89    37   107 1   
    90    38    39 1   
    91    38   108 1   
    92    39    40 1   
    93    39   109 1   
    94    40    41 1   
    95    40    42 1   
    96    40   110 1   
    97    41   111 1   
    98    41   112 1   
    99    41   113 1   
   100    42    43 1   
   101    42   114 1   
   102    42   115 1   
   103    43    44 1   
   104    43    45 1   
   105    43    46 1   
   106    44   116 1   
   107    44   117 1   
   108    44   118 1   
   109    45   119 1   
   110    46    47 1   
   111    46   120 1   
   112    47    48 1   
   113    48    49 1   
   114    48    51 1   
   115    48   121 1   
   116    49    50 1   
   117    49    55 1   
   118    49   122 1   
   119    50   123 1   
   120    51    52 1   
   121    52    53 1   
   122    52    54 1   
   123    52   124 1   
   124    53   125 1   
   125    53   126 1   
   126    53   127 1   
   127    54    55 1   
   128    54   128 1   
   129    54   129 1   
   130    55    56 1   
   131    55   130 1   
   132    56    57 1   
   133    56    58 1   
   134    57   131 1   
   135    57   132 1   
   136    57   133 1   
   137    58   134 1   
   138    58   135 1   
   139    58   136 1   
@<TRIPOS>SUBSTRUCTURE
     1 DI0         1 TEMP              0 ****  ****    0 ROOT
