@<TRIPOS>MOLECULE
DI0
  136   139     1     0     0
SMALL
No Charge or Current Charge


@<TRIPOS>ATOM
      1 CCB         73.3560   -55.6650    -3.4980 c3         1 DI0       0.144900
      2 OBK         73.6960   -54.7940    -4.5980 os         1 DI0      -0.442000
      3 CAN         73.1590   -53.4400    -4.6480 c6         1 DI0       0.159000
      4 CBQ         73.7660   -52.6680    -3.4340 c3         1 DI0      -0.124100
      5 CAT         71.6020   -53.3850    -4.5790 c6         1 DI0      -0.127400
      6 CAX         73.6300   -52.8030    -5.9960 c6         1 DI0       0.153300
      7 OBL         75.0590   -52.9330    -6.1170 oh         1 DI0      -0.704000
      8 CAZ         72.8970   -53.5220    -7.1740 c6         1 DI0       0.182300
      9 CBU         73.2450   -52.9270    -8.5610 c3         1 DI0      -0.086100
     10 OAV         71.4660   -53.3840    -7.0400 os         1 DI0      -0.479000
     11 CAR         70.8860   -53.9270    -5.8390 c6         1 DI0       0.394300
     12 OAY         70.8740   -55.3700    -5.8710 os         1 DI0      -0.475000
     13 CAC         70.0190   -56.0460    -6.8300 c3         1 DI0       0.184300
     14 CAJ         70.6870   -57.4430    -7.1130 c3         1 DI0      -0.064700
     15 CBP         71.0030   -58.2430    -5.8100 c3         1 DI0      -0.081100
     16 CAF         68.5420   -56.1790    -6.2990 c3         1 DI0      -0.144700
     17 CBN         67.8720   -54.9340    -5.6630 c3         1 DI0      -0.086100
     18 CAE         67.6350   -56.6840    -7.4330 c          1 DI0       0.597100
     19 OBF         67.3900   -56.0350    -8.4390 o          1 DI0      -0.472000
     20 OAL         67.0040   -57.8520    -7.0880 os         1 DI0      -0.464100
     21 CAW         65.9820   -58.4110    -7.9520 c3         1 DI0       0.147300
     22 CBT         64.7950   -58.7700    -7.0080 c3         1 DI0      -0.086400
     23 CCF         64.2110   -57.5510    -6.2600 c3         1 DI0      -0.089100
     24 CAD         66.5890   -59.6070    -8.7970 c3         1 DI0       0.192000
     25 CBM         67.3350   -60.6110    -7.8700 c3         1 DI0      -0.122100
     26 OBH         65.4890   -60.3370    -9.3830 oh         1 DI0      -0.698000
     27 CAA         67.5570   -59.0300    -9.9220 c6         1 DI0       0.195300
     28 CAI         68.3980   -60.0460   -10.7560 c6         1 DI0      -0.087700
     29 CBO         67.5650   -61.1180   -11.5260 c3         1 DI0      -0.078100
     30 OAS         66.7900   -58.2330   -10.8540 os         1 DI0      -0.449000
     31 CBA         67.5410   -57.4590   -11.8150 c6         1 DI0       0.416500
     32 CBS         66.9280   -57.7020   -13.2310 c3         1 DI0       0.107600
     33 OBW         67.7210   -57.0190   -14.2290 os         1 DI0      -0.476000
     34 CCD         67.2460   -57.1770   -15.5800 c3         1 DI0       0.127600
     35 CCC         68.1750   -56.3970   -16.5500 c3         1 DI0       0.162600
     36 OBX         67.8130   -54.9940   -16.6120 os         1 DI0      -0.455000
     37 CCE         68.0350   -54.2230   -15.4150 c3         1 DI0       0.148900
     38 NAQ         68.9880   -57.8020   -11.8110 n7         1 DI0      -0.909400
     39 CAK         69.3180   -59.2430   -11.7410 c6         1 DI0       0.173500
     40 CBB         70.8530   -59.3950   -11.4400 c3         1 DI0      -0.058700
     41 CBV         71.3330   -60.8330   -11.7700 c3         1 DI0      -0.091100
     42 CBC         71.3280   -58.9920    -9.9930 c3         1 DI0      -0.100400
     43 CAP         71.5800   -57.4820    -9.6350 c3         1 DI0       0.199000
     44 CBR         72.7350   -56.9040   -10.4920 c3         1 DI0      -0.105100
     45 OBJ         70.4180   -56.7090    -9.9340 oh         1 DI0      -0.774000
     46 CAH         71.9130   -57.3030    -8.0980 c3         1 DI0       0.184300
     47 OAM         72.9510   -58.2490    -7.7370 os         1 DI0      -0.468000
     48 CAB         74.1370   -57.6980    -7.0580 c6         1 DI0       0.357300
     49 CAG         74.9990   -58.8780    -6.5000 c6         1 DI0       0.144300
     50 OBI         74.1370   -59.7300    -5.7040 oh         1 DI0      -0.729000
     51 OAU         74.9630   -56.8520    -7.9230 os         1 DI0      -0.486000
     52 CBG         76.0220   -56.2050    -7.2100 c6         1 DI0       0.171300
     53 CCA         76.7360   -55.2670    -8.2120 c3         1 DI0      -0.083100
     54 CBD         76.9820   -57.2610    -6.6180 c6         1 DI0      -0.110400
     55 CAO         76.2600   -58.3170    -5.7150 c6         1 DI0       0.204500
     56 NBE         77.2680   -59.3650    -5.2650 n3         1 DI0      -0.742600
     57 CBZ         78.4310   -58.8070    -4.5230 c3         1 DI0       0.169600
     58 CBY         76.6920   -60.5120    -4.5180 c3         1 DI0       0.169600
     59 H1          73.8650   -56.6300    -3.6160 h1         1 DI0       0.032367
     60 H2          73.6690   -55.2390    -2.5370 h1         1 DI0       0.032367
     61 H3          72.2780   -55.8620    -3.4640 h1         1 DI0       0.032367
     62 H4          73.3100   -52.9770    -2.4860 hc         1 DI0       0.043033
     63 H5          74.8480   -52.8260    -3.3500 hc         1 DI0       0.043033
     64 H6          73.5980   -51.5890    -3.5310 hc         1 DI0       0.043033
     65 H7          71.2940   -52.3390    -4.4530 hc         1 DI0       0.060200
     66 H8          71.2230   -53.9000    -3.6890 hc         1 DI0       0.060200
     67 H9          73.3490   -51.7390    -6.0100 h1         1 DI0       0.037700
     68 H10         75.2820   -53.6700    -5.5040 ho         1 DI0       0.502000
     69 H11         73.1640   -54.5870    -7.1690 h1         1 DI0       0.069700
     70 H12         74.3160   -53.0000    -8.7740 hc         1 DI0       0.046367
     71 H13         72.7130   -53.4580    -9.3590 hc         1 DI0       0.046367
     72 H14         72.9680   -51.8670    -8.6180 hc         1 DI0       0.046367
     73 H15         69.8590   -53.5550    -5.7870 h2         1 DI0       0.067700
     74 H16         69.9900   -55.4740    -7.7680 h1         1 DI0       0.092700
     75 H17         69.9330   -58.0440    -7.6320 hc         1 DI0       0.058700
     76 H18         70.1270   -58.3360    -5.1600 hc         1 DI0       0.035033
     77 H19         71.3130   -59.2650    -6.0510 hc         1 DI0       0.035033
     78 H20         71.7990   -57.7640    -5.2290 hc         1 DI0       0.035033
     79 H21         68.5300   -56.9430    -5.5180 hc         1 DI0       0.076700
     80 H22         66.8290   -55.1570    -5.4050 hc         1 DI0       0.044033
     81 H23         68.3760   -54.6440    -4.7340 hc         1 DI0       0.044033
     82 H24         67.8660   -54.0860    -6.3590 hc         1 DI0       0.044033
     83 H25         65.5980   -57.6610    -8.6570 h1         1 DI0       0.095700
     84 H26         63.9840   -59.2200    -7.5910 hc         1 DI0       0.048200
     85 H27         65.1100   -59.5150    -6.2690 hc         1 DI0       0.048200
     86 H28         63.3420   -57.8520    -5.6630 hc         1 DI0       0.037033
     87 H29         64.9510   -57.1110    -5.5810 hc         1 DI0       0.037033
     88 H30         63.8880   -56.7780    -6.9690 hc         1 DI0       0.037033
     89 H31         66.7100   -60.9350    -7.0310 hc         1 DI0       0.048033
     90 H32         67.6330   -61.5130    -8.4170 hc         1 DI0       0.048033
     91 H33         68.2440   -60.1580    -7.4560 hc         1 DI0       0.048033
     92 H34         65.1220   -60.9230    -8.6860 ho         1 DI0       0.499000
     93 H35         68.2660   -58.3700    -9.4050 h1         1 DI0       0.064700
     94 H36         69.0210   -60.6290   -10.0700 hc         1 DI0       0.059700
     95 H37         67.0810   -61.8230   -10.8410 hc         1 DI0       0.037367
     96 H38         66.7840   -60.6640   -12.1450 hc         1 DI0       0.037367
     97 H39         68.2060   -61.7150   -12.1850 hc         1 DI0       0.037367
     98 H40         67.4430   -56.3870   -11.5820 h2         1 DI0       0.083700
     99 H41         65.8950   -57.3300   -13.2330 h1         1 DI0       0.041200
    100 H42         66.9060   -58.7800   -13.4330 h1         1 DI0       0.041200
    101 H43         66.2150   -56.8140   -15.6840 h1         1 DI0       0.032200
    102 H44         67.2610   -58.2380   -15.8590 h1         1 DI0       0.032200
    103 H45         68.0710   -56.8410   -17.5480 h1         1 DI0       0.049200
    104 H46         69.2220   -56.5240   -16.2450 h1         1 DI0       0.049200
    105 H47         67.8700   -53.1570   -15.6150 h1         1 DI0       0.032367
    106 H48         67.3450   -54.5210   -14.6160 h1         1 DI0       0.032367
    107 H49         69.0650   -54.3460   -15.0540 h1         1 DI0       0.032367
    108 H50         69.3330   -57.4360   -12.7130 hn         1 DI0       0.448000
    109 H52         69.1550   -59.6430   -12.7540 h1         1 DI0       0.033700
    110 H53         71.3870   -58.7580   -12.1530 hc         1 DI0       0.051700
    111 H54         72.4270   -60.8960   -11.7290 hc         1 DI0       0.035033
    112 H55         70.9250   -61.5650   -11.0640 hc         1 DI0       0.035033
    113 H56         71.0230   -61.1240   -12.7810 hc         1 DI0       0.035033
    114 H57         70.6500   -59.4260    -9.2530 hc         1 DI0       0.050200
    115 H58         72.2790   -59.5090    -9.8170 hc         1 DI0       0.050200
    116 H59         73.6440   -57.5070   -10.3800 hc         1 DI0       0.040033
    117 H60         72.4750   -56.8740   -11.5550 hc         1 DI0       0.040033
    118 H61         72.9730   -55.8790   -10.1830 hc         1 DI0       0.040033
    119 H62         69.9040   -57.2080   -10.6450 ho         1 DI0       0.554000
    120 H63         72.2990   -56.2850    -7.9820 h1         1 DI0       0.070700
    121 H64         73.7910   -57.0940    -6.2040 h2         1 DI0       0.055700
    122 H65         75.3730   -59.4430    -7.3660 h1         1 DI0       0.057700
    123 H66         73.3060   -59.8030    -6.2290 ho         1 DI0       0.516000
    124 H67         75.5890   -55.6000    -6.4000 h1         1 DI0       0.059700
    125 H68         77.5280   -54.6930    -7.7170 hc         1 DI0       0.042367
    126 H69         77.1940   -55.8340    -9.0320 hc         1 DI0       0.042367
    127 H70         76.0340   -54.5520    -8.6520 hc         1 DI0       0.042367
    128 H71         77.5060   -57.7770    -7.4340 hc         1 DI0       0.057700
    129 H72         77.7440   -56.7190    -6.0460 hc         1 DI0       0.057700
    130 H73         75.8760   -57.7870    -4.8290 h1         1 DI0       0.041700
    131 H75         79.0850   -59.6110    -4.1600 h1         1 DI0       0.027867
    132 H76         79.0510   -58.1660    -5.1610 h1         1 DI0       0.027867
    133 H77         78.0970   -58.2230    -3.6540 h1         1 DI0       0.027867
    134 H78         77.4850   -61.1560    -4.1150 h1         1 DI0       0.027867
    135 H79         76.0760   -60.1650    -3.6760 h1         1 DI0       0.027867
    136 H80         76.0840   -61.1470    -5.1730 h1         1 DI0       0.027867
@<TRIPOS>BOND
     1     1     2 1   
     2     1    59 1   
     3     1    60 1   
     4     1    61 1   
     5     2     3 1   
     6     3     4 1   
     7     3     5 1   
     8     3     6 1   
     9     4    62 1   
    10     4    63 1   
    11     4    64 1   
    12     5    11 1   
    13     5    65 1   
    14     5    66 1   
    15     6     7 1   
    16     6     8 1   
    17     6    67 1   
    18     7    68 1   
    19     8     9 1   
    20     8    10 1   
    21     8    69 1   
    22     9    70 1   
    23     9    71 1   
    24     9    72 1   
    25    10    11 1   
    26    11    12 1   
    27    11    73 1   
    28    12    13 1   
    29    13    14 1   
    30    13    16 1   
    31    13    74 1   
    32    14    15 1   
    33    14    46 1   
    34    14    75 1   
    35    15    76 1   
    36    15    77 1   
    37    15    78 1   
    38    16    17 1   
    39    16    18 1   
    40    16    79 1   
    41    17    80 1   
    42    17    81 1   
    43    17    82 1   
    44    18    19 2   
    45    18    20 1   
    46    20    21 1   
    47    21    22 1   
    48    21    24 1   
    49    21    83 1   
    50    22    23 1   
    51    22    84 1   
    52    22    85 1   
    53    23    86 1   
    54    23    87 1   
    55    23    88 1   
    56    24    25 1   
    57    24    26 1   
    58    24    27 1   
    59    25    89 1   
    60    25    90 1   
    61    25    91 1   
    62    26    92 1   
    63    27    28 1   
    64    27    30 1   
    65    27    93 1   
    66    28    29 1   
    67    28    39 1   
    68    28    94 1   
    69    29    95 1   
    70    29    96 1   
    71    29    97 1   
    72    30    31 1   
    73    31    32 1   
    74    31    38 1   
    75    31    98 1   
    76    32    33 1   
    77    32    99 1   
    78    32   100 1   
    79    33    34 1   
    80    34    35 1   
    81    34   101 1   
    82    34   102 1   
    83    35    36 1   
    84    35   103 1   
    85    35   104 1   
    86    36    37 1   
    87    37   105 1   
    88    37   106 1   
    89    37   107 1   
    90    38    39 1   
    91    38   108 1   
    92    39    40 1   
    93    39   109 1   
    94    40    41 1   
    95    40    42 1   
    96    40   110 1   
    97    41   111 1   
    98    41   112 1   
    99    41   113 1   
   100    42    43 1   
   101    42   114 1   
   102    42   115 1   
   103    43    44 1   
   104    43    45 1   
   105    43    46 1   
   106    44   116 1   
   107    44   117 1   
   108    44   118 1   
   109    45   119 1   
   110    46    47 1   
   111    46   120 1   
   112    47    48 1   
   113    48    49 1   
   114    48    51 1   
   115    48   121 1   
   116    49    50 1   
   117    49    55 1   
   118    49   122 1   
   119    50   123 1   
   120    51    52 1   
   121    52    53 1   
   122    52    54 1   
   123    52   124 1   
   124    53   125 1   
   125    53   126 1   
   126    53   127 1   
   127    54    55 1   
   128    54   128 1   
   129    54   129 1   
   130    55    56 1   
   131    55   130 1   
   132    56    57 1   
   133    56    58 1   
   134    57   131 1   
   135    57   132 1   
   136    57   133 1   
   137    58   134 1   
   138    58   135 1   
   139    58   136 1   
@<TRIPOS>SUBSTRUCTURE
     1 DI0         1 TEMP              0 ****  ****    0 ROOT
