@<TRIPOS>MOLECULE
DI1
   71    75     1     0     0
SMALL
No Charge or Current Charge


@<TRIPOS>ATOM
      1 C01         -6.4160     5.3360     2.2690 c3         1 DI1      -0.090100
      2 C02         -7.2120     4.1450     1.6980 c3         1 DI1       0.169800
      3 N03         -6.5000     3.3700     0.6540 n3         1 DI1      -0.720600
      4 C04         -7.3880     2.3600    -0.0010 c6         1 DI1       0.164800
      5 C05         -6.6600     1.5650    -1.1320 c6         1 DI1       0.165300
      6 N06         -5.4180     0.8950    -0.6440 n3         1 DI1      -0.712600
      7 C07         -4.5230     1.8960     0.0140 c6         1 DI1       0.165300
      8 C08         -5.2510     2.6980     1.1400 c6         1 DI1       0.164800
      9 C09         -4.7470     0.0980    -1.7030 c3         1 DI1       0.201100
     10 C10         -3.5460    -0.7270    -1.2120 ca         1 DI1      -0.000300
     11 C11         -2.2620    -0.1820    -1.4030 ca         1 DI1      -0.129000
     12 C12         -1.1100    -0.8630    -0.9850 ca         1 DI1      -0.060000
     13 C13         -1.2150    -2.1250    -0.3610 ca         1 DI1      -0.164600
     14 C14         -2.5020    -2.6770    -0.1730 ca         1 DI1      -0.017000
     15 C15         -3.6760    -2.0000    -0.5890 ca         1 DI1      -0.181300
     16 C16         -5.0530    -2.6610    -0.3670 c3         1 DI1       0.358300
     17 F17         -4.9730    -3.8510     0.2730 f          1 DI1      -0.110000
     18 F18         -5.8770    -1.8930     0.3810 f          1 DI1      -0.110000
     19 F19         -5.6860    -2.9090    -1.5360 f          1 DI1      -0.110000
     20 C20          0.0040    -2.9000     0.1090 c          1 DI1       0.620700
     21 N21          1.2320    -2.2860    -0.1120 ns         1 DI1      -0.145000
     22 C22          2.5690    -2.6750     0.1730 ca         1 DI1       0.003000
     23 C23          2.9220    -3.8980     0.7850 ca         1 DI1      -0.149000
     24 C24          4.2710    -4.2120     1.0280 ca         1 DI1      -0.061000
     25 C25          5.2900    -3.3110     0.6690 ca         1 DI1      -0.119300
     26 C26          6.7500    -3.6590     0.9380 c3         1 DI1      -0.031800
     27 C27          4.9420    -2.0850     0.0690 ca         1 DI1       0.157100
     28 C28          3.5910    -1.7790    -0.1850 ca         1 DI1      -0.237000
     29 O29          5.9330    -1.2000    -0.2970 os         1 DI1      -0.249200
     30 C30          5.8390     0.1580    -0.0830 ca         1 DI1       0.064100
     31 C31          5.1940     0.6730     1.0740 ca         1 DI1      -0.079000
     32 C32          5.1170     2.0660     1.2850 ca         1 DI1      -0.137000
     33 C33          5.7000     2.8990     0.3250 ca         1 DI1      -0.030000
     34 C34          6.3380     2.4130    -0.7950 ca         1 DI1      -0.139300
     35 C35          6.8660     3.5760    -1.6290 c5         1 DI1      -0.119100
     36 C36          6.4300     4.8330    -0.8090 c          1 DI1       0.564000
     37 N37          5.7760     4.2860     0.2770 ns         1 DI1      -0.149000
     38 O38          6.6030     6.0240    -1.0350 o          1 DI1      -0.520000
     39 C39          6.4260     1.0320    -1.0230 ca         1 DI1      -0.067000
     40 O40         -0.1130    -3.9950     0.6470 o          1 DI1      -0.567100
     41 H011        -6.0720     5.9930     1.4620 hc         1 DI1       0.037367
     42 H012        -7.0520     5.9240     2.9410 hc         1 DI1       0.037367
     43 H013        -5.5460     4.9970     2.8420 hc         1 DI1       0.037367
     44 H021        -7.4990     3.4840     2.5280 h1         1 DI1       0.029700
     45 H022        -8.1430     4.5470     1.2740 h1         1 DI1       0.029700
     46 H041        -7.7580     1.6410     0.7460 h1         1 DI1       0.039950
     47 H042        -8.2700     2.8530    -0.4360 h1         1 DI1       0.039950
     48 H081        -4.5420     3.4370     1.5390 h1         1 DI1       0.039950
     49 H082        -5.4910     2.0060     1.9610 h1         1 DI1       0.039950
     50 H051        -7.3580     0.8190    -1.5400 h1         1 DI1       0.037700
     51 H052        -6.4180     2.2600    -1.9490 h1         1 DI1       0.037700
     52 H071        -3.6510     1.3970     0.4610 h1         1 DI1       0.037700
     53 H072        -4.1400     2.6080    -0.7320 h1         1 DI1       0.037700
     54 H091        -5.4720    -0.5740    -2.1770 h1         1 DI1       0.049200
     55 H092        -4.4040     0.7700    -2.5020 h1         1 DI1       0.049200
     56 H11         -2.1530     0.7890    -1.8790 ha         1 DI1       0.122000
     57 H12         -0.1460    -0.3890    -1.1570 ha         1 DI1       0.121000
     58 H14         -2.5830    -3.6520     0.3040 ha         1 DI1       0.154000
     59 H21          1.1660    -1.3850    -0.5640 hn         1 DI1       0.153000
     60 H23          2.1700    -4.6230     1.0790 ha         1 DI1       0.145000
     61 H28          3.3380    -0.8380    -0.6660 ha         1 DI1       0.121000
     62 H24          4.5210    -5.1610     1.4980 ha         1 DI1       0.118000
     63 H261         7.3240    -3.6910     0.0040 hc         1 DI1       0.043367
     64 H262         7.2170    -2.9130     1.5920 hc         1 DI1       0.043367
     65 H263         6.8550    -4.6360     1.4230 hc         1 DI1       0.043367
     66 H31          4.7610    -0.0040     1.8060 ha         1 DI1       0.135000
     67 H39          6.9300     0.6420    -1.9040 ha         1 DI1       0.135000
     68 H32          4.6250     2.4750     2.1650 ha         1 DI1       0.128000
     69 H37          5.3740     4.8660     1.0020 hn         1 DI1       0.174000
     70 H351         7.9550     3.5880    -1.7450 hc         1 DI1       0.092700
     71 H352         6.4350     3.6410    -2.6340 hc         1 DI1       0.092700
@<TRIPOS>BOND
     1     1     2 1   
     2     1    41 1   
     3     1    42 1   
     4     1    43 1   
     5     2     3 1   
     6     2    44 1   
     7     2    45 1   
     8     3     4 1   
     9     3     8 1   
    10     4     5 1   
    11     4    46 1   
    12     4    47 1   
    13     5     6 1   
    14     5    50 1   
    15     5    51 1   
    16     6     7 1   
    17     6     9 1   
    18     7     8 1   
    19     7    52 1   
    20     7    53 1   
    21     8    48 1   
    22     8    49 1   
    23     9    10 1   
    24     9    54 1   
    25     9    55 1   
    26    10    11 ar  
    27    10    15 ar  
    28    11    12 ar  
    29    11    56 1   
    30    12    13 ar  
    31    12    57 1   
    32    13    14 ar  
    33    13    20 1   
    34    14    15 ar  
    35    14    58 1   
    36    15    16 1   
    37    16    17 1   
    38    16    18 1   
    39    16    19 1   
    40    20    21 1   
    41    20    40 2   
    42    21    22 1   
    43    21    59 1   
    44    22    23 ar  
    45    22    28 ar  
    46    23    24 ar  
    47    23    60 1   
    48    24    25 ar  
    49    24    62 1   
    50    25    26 1   
    51    25    27 ar  
    52    26    63 1   
    53    26    64 1   
    54    26    65 1   
    55    27    28 ar  
    56    27    29 1   
    57    28    61 1   
    58    29    30 1   
    59    30    31 ar  
    60    30    39 ar  
    61    31    32 ar  
    62    31    66 1   
    63    32    33 ar  
    64    32    68 1   
    65    33    34 ar  
    66    33    37 1   
    67    34    35 1   
    68    34    39 ar  
    69    35    36 1   
    70    35    70 1   
    71    35    71 1   
    72    36    37 1   
    73    36    38 2   
    74    37    69 1   
    75    39    67 1   
@<TRIPOS>SUBSTRUCTURE
     1 DI1         1 TEMP              0 ****  ****    0 ROOT
