@<TRIPOS>MOLECULE
DI1
   71    75     1     0     0
SMALL
abcg2


@<TRIPOS>ATOM
      1 C01         -5.2250     5.8220     1.0440 c3         1 DI1      -0.090100
      2 C02         -6.0080     4.5440     1.2950 c3         1 DI1       0.169800
      3 N03         -5.7270     3.4940     0.3320 n3         1 DI1      -0.720600
      4 C04         -6.6690     2.4000     0.4600 c6         1 DI1       0.164800
      5 C05         -6.4210     1.3440    -0.5980 c6         1 DI1       0.165300
      6 N06         -5.0670     0.8350    -0.5040 n3         1 DI1      -0.712600
      7 C07         -4.1150     1.9200    -0.6150 c6         1 DI1       0.165300
      8 C08         -4.3750     2.9830     0.4350 c6         1 DI1       0.164800
      9 C09         -4.8310    -0.2190    -1.4730 c3         1 DI1       0.201100
     10 C10         -3.5780    -1.0020    -1.1620 ca         1 DI1      -0.000300
     11 C11         -2.4100    -0.6560    -1.8300 ca         1 DI1      -0.129000
     12 C12         -1.1980    -1.2720    -1.5620 ca         1 DI1      -0.060000
     13 C13         -1.1350    -2.2840    -0.6150 ca         1 DI1      -0.164600
     14 C14         -2.3030    -2.6790     0.0310 ca         1 DI1      -0.017000
     15 C15         -3.5070    -2.0400    -0.2190 ca         1 DI1      -0.181300
     16 C16         -4.7360    -2.5260     0.4990 c3         1 DI1       0.358300
     17 F17         -4.4560    -3.4870     1.3880 f          1 DI1      -0.110000
     18 F18         -5.3630    -1.5580     1.1700 f          1 DI1      -0.110000
     19 F19         -5.6310    -3.0520    -0.3550 f          1 DI1      -0.110000
     20 C20          0.1260    -3.0190    -0.2960 c          1 DI1       0.620700
     21 N21          1.2530    -2.2740    -0.4000 ns         1 DI1      -0.145000
     22 C22          2.5760    -2.6880    -0.1900 ca         1 DI1       0.003000
     23 C23          3.0100    -3.9980    -0.3500 ca         1 DI1      -0.149000
     24 C24          4.3550    -4.2870    -0.1540 ca         1 DI1      -0.061000
     25 C25          5.2920    -3.3250     0.1920 ca         1 DI1      -0.119300
     26 C26          6.7380    -3.6640     0.3940 c3         1 DI1      -0.031800
     27 C27          4.8280    -2.0140     0.3440 ca         1 DI1       0.157100
     28 C28          3.4930    -1.6950     0.1610 ca         1 DI1      -0.237000
     29 O29          5.7690    -1.0940     0.6910 os         1 DI1      -0.249200
     30 C30          5.4090     0.2270     0.8230 ca         1 DI1       0.064100
     31 C31          5.0980     0.7190     2.0800 ca         1 DI1      -0.079000
     32 C32          4.7790     2.0630     2.2530 ca         1 DI1      -0.137000
     33 C33          4.7770     2.8730     1.1350 ca         1 DI1      -0.030000
     34 C34          5.0850     2.3780    -0.1330 ca         1 DI1      -0.139300
     35 C35          4.9930     3.5070    -1.1090 c5         1 DI1      -0.119100
     36 C36          4.5990     4.6920    -0.2400 c          1 DI1       0.564000
     37 N37          4.4970     4.2300     1.0390 ns         1 DI1      -0.149000
     38 O38          4.4070     5.8350    -0.5970 o          1 DI1      -0.520000
     39 C39          5.4060     1.0490    -0.3010 ca         1 DI1      -0.067000
     40 O40          0.1070    -4.1900     0.0390 o          1 DI1      -0.567100
     41 H011        -5.3640     6.1680     0.0180 hc         1 DI1       0.037367
     42 H012        -5.5740     6.6080     1.7140 hc         1 DI1       0.037367
     43 H013        -4.1560     5.7000     1.2180 hc         1 DI1       0.037367
     44 H021        -5.8260     4.1990     2.3280 h1         1 DI1       0.029700
     45 H022        -7.0750     4.7690     1.2320 h1         1 DI1       0.029700
     46 H041        -6.6150     1.9280     1.4570 h1         1 DI1       0.039950
     47 H042        -7.6840     2.7870     0.3430 h1         1 DI1       0.039950
     48 H081        -3.6580     3.7910     0.2820 h1         1 DI1       0.039950
     49 H082        -4.1780     2.5610     1.4370 h1         1 DI1       0.039950
     50 H051        -7.1240     0.5210    -0.4470 h1         1 DI1       0.037700
     51 H052        -6.6310     1.7710    -1.5940 h1         1 DI1       0.037700
     52 H071        -3.1020     1.5390    -0.4690 h1         1 DI1       0.037700
     53 H072        -4.1440     2.3850    -1.6170 h1         1 DI1       0.037700
     54 H091        -5.7050    -0.8700    -1.4890 h1         1 DI1       0.049200
     55 H092        -4.7400     0.1810    -2.4960 h1         1 DI1       0.049200
     56 H11         -2.4500     0.1230    -2.5810 ha         1 DI1       0.122000
     57 H12         -0.3210    -0.9660    -2.1190 ha         1 DI1       0.121000
     58 H14         -2.2460    -3.4900     0.7430 ha         1 DI1       0.154000
     59 H21          1.1300    -1.2790    -0.5090 hn         1 DI1       0.153000
     60 H23          2.3330    -4.7880    -0.6320 ha         1 DI1       0.145000
     61 H28          3.1440    -0.6770     0.2910 ha         1 DI1       0.121000
     62 H24          4.6860    -5.3100    -0.2850 ha         1 DI1       0.118000
     63 H261         7.3860    -3.1030    -0.2810 hc         1 DI1       0.043367
     64 H262         7.0700    -3.4440     1.4100 hc         1 DI1       0.043367
     65 H263         6.9100    -4.7230     0.2120 hc         1 DI1       0.043367
     66 H31          5.1080     0.0520     2.9340 ha         1 DI1       0.135000
     67 H39          5.6550     0.6510    -1.2780 ha         1 DI1       0.135000
     68 H32          4.5410     2.4500     3.2350 ha         1 DI1       0.128000
     69 H37          4.2510     4.8180     1.8210 hn         1 DI1       0.174000
     70 H351         5.9370     3.7150    -1.6190 hc         1 DI1       0.092700
     71 H352         4.2390     3.3480    -1.8830 hc         1 DI1       0.092700
@<TRIPOS>BOND
     1     1     2 1   
     2     1    41 1   
     3     1    42 1   
     4     1    43 1   
     5     2     3 1   
     6     2    44 1   
     7     2    45 1   
     8     3     4 1   
     9     3     8 1   
    10     4     5 1   
    11     4    46 1   
    12     4    47 1   
    13     5     6 1   
    14     5    50 1   
    15     5    51 1   
    16     6     7 1   
    17     6     9 1   
    18     7     8 1   
    19     7    52 1   
    20     7    53 1   
    21     8    48 1   
    22     8    49 1   
    23     9    10 1   
    24     9    54 1   
    25     9    55 1   
    26    10    11 ar  
    27    10    15 ar  
    28    11    12 ar  
    29    11    56 1   
    30    12    13 ar  
    31    12    57 1   
    32    13    14 ar  
    33    13    20 1   
    34    14    15 ar  
    35    14    58 1   
    36    15    16 1   
    37    16    17 1   
    38    16    18 1   
    39    16    19 1   
    40    20    21 1   
    41    20    40 2   
    42    21    22 1   
    43    21    59 1   
    44    22    23 ar  
    45    22    28 ar  
    46    23    24 ar  
    47    23    60 1   
    48    24    25 ar  
    49    24    62 1   
    50    25    26 1   
    51    25    27 ar  
    52    26    63 1   
    53    26    64 1   
    54    26    65 1   
    55    27    28 ar  
    56    27    29 1   
    57    28    61 1   
    58    29    30 1   
    59    30    31 ar  
    60    30    39 ar  
    61    31    32 ar  
    62    31    66 1   
    63    32    33 ar  
    64    32    68 1   
    65    33    34 ar  
    66    33    37 1   
    67    34    35 1   
    68    34    39 ar  
    69    35    36 1   
    70    35    70 1   
    71    35    71 1   
    72    36    37 1   
    73    36    38 2   
    74    37    69 1   
    75    39    67 1   
@<TRIPOS>SUBSTRUCTURE
     1 DI1         1 TEMP              0 ****  ****    0 ROOT
