@<TRIPOS>MOLECULE
DI6
   19    19     1     0     0
SMALL
No Charge or Current Charge


@<TRIPOS>ATOM
      1 N1           2.7040    -0.1540    -0.3940 ns         1 DI6      -0.494500
      2 C2           1.8170    -1.1220    -0.0800 c          1 DI6       0.558000
      3 O2           1.9210    -2.3050    -0.3660 o          1 DI6      -0.519000
      4 C3           0.6980    -0.3400     0.6810 c5         1 DI6       0.017700
      5 N4           1.2480     1.0390     0.6540 ns         1 DI6      -0.506900
      6 C5           2.4340     1.0970    -0.0080 c          1 DI6       0.612000
      7 O5           3.1130     2.0850    -0.2060 o          1 DI6      -0.583000
      8 C6          -0.6750    -0.4670    -0.0260 c3         1 DI6      -0.053400
      9 C7          -1.8220     0.3090     0.6710 c3         1 DI6      -0.214400
     10 C8          -3.1500     0.0650    -0.0680 c          1 DI6       0.721000
     11 O9          -3.8250    -0.8970     0.2660 o          1 DI6      -0.733500
     12 O10         -3.4400     0.8090    -0.9920 o          1 DI6      -0.733500
     13 HN1          3.5460    -0.3650    -0.9070 hn         1 DI6       0.338500
     14 H3           0.6360    -0.7370     1.7030 h1         1 DI6       0.072700
     15 HN4          0.8340     1.8830     1.0350 hn         1 DI6       0.351500
     16 H61         -0.5890    -0.1210    -1.0640 hc         1 DI6       0.065700
     17 H62         -0.9520    -1.5280    -0.0800 hc         1 DI6       0.065700
     18 H71         -1.8740    -0.0860     1.6930 hc         1 DI6       0.017200
     19 H72         -1.5470     1.3700     0.6210 hc         1 DI6       0.017200
@<TRIPOS>BOND
     1     1     2 1   
     2     1     6 1   
     3     1    13 1   
     4     2     3 2   
     5     2     4 1   
     6     4     5 1   
     7     4     8 1   
     8     4    14 1   
     9     5     6 1   
    10     5    15 1   
    11     6     7 2   
    12     8     9 1   
    13     8    16 1   
    14     8    17 1   
    15     9    10 1   
    16     9    18 1   
    17     9    19 1   
    18    10    11 1   
    19    10    12 1   
@<TRIPOS>SUBSTRUCTURE
     1 DI6         1 TEMP              0 ****  ****    0 ROOT
