@<TRIPOS>MOLECULE
DI6
   19    19     1     0     0
SMALL
bcc


@<TRIPOS>ATOM
      1 N1           2.7740    -0.2780    -0.3080 ns         1 DI6      -0.628500
      2 C2           1.7880    -1.1300     0.0810 c          1 DI6       0.700500
      3 O2           1.7900    -2.3340    -0.0150 o          1 DI6      -0.594500
      4 C3           0.6750    -0.2640     0.6480 c5         1 DI6       0.017700
      5 N4           1.2150     1.0610     0.4510 ns         1 DI6      -0.573900
      6 C5           2.4540     1.0600    -0.0750 c          1 DI6       0.821500
      7 O5           3.1770     2.0030    -0.3150 o          1 DI6      -0.658500
      8 C6          -0.6590    -0.5110    -0.0490 c3         1 DI6      -0.053400
      9 C7          -1.7720     0.3550     0.5170 c3         1 DI6      -0.214400
     10 C8          -3.1770     0.0620    -0.0450 c          1 DI6       0.931600
     11 O9          -3.3200    -0.9570    -0.7460 o          1 DI6      -0.838800
     12 O10         -4.0660     0.8780     0.2720 o          1 DI6      -0.838800
     13 HN1          3.6400    -0.5640    -0.7410 hn         1 DI6       0.338500
     14 H3           0.5750    -0.4880     1.7170 h1         1 DI6       0.072700
     15 HN4          0.8010     1.8980     0.8270 hn         1 DI6       0.351500
     16 H61         -0.5410    -0.3340    -1.1220 hc         1 DI6       0.065700
     17 H62         -0.9100    -1.5650     0.0750 hc         1 DI6       0.065700
     18 H71         -1.8120     0.2290     1.6060 hc         1 DI6       0.017200
     19 H72         -1.5570     1.4160     0.3550 hc         1 DI6       0.017200
@<TRIPOS>BOND
     1     1     2 1   
     2     1     6 1   
     3     1    13 1   
     4     2     3 2   
     5     2     4 1   
     6     4     5 1   
     7     4     8 1   
     8     4    14 1   
     9     5     6 1   
    10     5    15 1   
    11     6     7 2   
    12     8     9 1   
    13     8    16 1   
    14     8    17 1   
    15     9    10 1   
    16     9    18 1   
    17     9    19 1   
    18    10    11 1   
    19    10    12 1   
@<TRIPOS>SUBSTRUCTURE
     1 DI6         1 TEMP              0 ****  ****    0 ROOT
