@<TRIPOS>MOLECULE
DI7
   29    29     1     0     0
SMALL
No Charge or Current Charge


@<TRIPOS>ATOM
      1 C          -47.8050   -33.0000     6.3150 c          1 DI7       0.716000
      2 N          -46.9370   -33.1060     3.8290 n8         1 DI7      -0.972200
      3 O          -48.9590   -33.0750     6.7180 o          1 DI7      -0.724000
      4 CA         -47.4000   -33.8680     5.0490 c3         1 DI7       0.021500
      5 CB         -46.3740   -34.9790     5.4230 c3         1 DI7      -0.013100
      6 CD         -47.0180   -36.2140     6.0870 ca         1 DI7      -0.058300
      7 CZ         -48.2210   -38.4800     7.2840 ca         1 DI7       0.116100
      8 CD1        -47.6780   -37.1910     5.2870 ca         1 DI7      -0.019800
      9 CD2        -46.9530   -36.4080     7.4970 ca         1 DI7      -0.019800
     10 CE1        -48.2750   -38.3100     5.8990 ca         1 DI7      -0.183000
     11 CE2        -47.5600   -37.5390     8.0780 ca         1 DI7      -0.183000
     12 CE3        -47.7510   -37.0880     3.7630 c3         1 DI7      -0.050800
     13 CE4        -46.2260   -35.4360     8.4260 c3         1 DI7      -0.050800
     14 OXT        -46.9980   -32.1930     6.7630 o          1 DI7      -0.724000
     15 HN         -46.8390   -33.7550     3.0400 hn         1 DI7       0.362000
     16 HNA        -47.6780   -32.4610     3.5330 hn         1 DI7       0.362000
     17 HA         -48.3190   -34.3720     4.7250 h1         1 DI7       0.004700
     18 HB         -45.8440   -35.3020     4.5190 hc         1 DI7       0.033700
     19 HBA        -45.5860   -34.5410     6.0440 hc         1 DI7       0.033700
     20 HOH        -48.6640   -39.5230     8.8250 ho         1 DI7       0.450000
     21 HE1        -48.7820   -39.0580     5.2940 ha         1 DI7       0.100500
     22 HE2        -47.5120   -37.6850     9.1550 ha         1 DI7       0.100500
     23 HE3        -46.7500   -37.0670     3.3170 hc         1 DI7       0.042033
     24 HE3A       -48.2760   -37.9440     3.3220 hc         1 DI7       0.042033
     25 HE3B       -48.2870   -36.1890     3.4420 hc         1 DI7       0.042033
     26 HE4        -46.6650   -34.4350     8.3820 hc         1 DI7       0.042033
     27 HE4A       -46.2750   -35.7580     9.4730 hc         1 DI7       0.042033
     28 HE4B       -45.1640   -35.3590     8.1680 hc         1 DI7       0.042033
     29 OH         -48.8040   -39.5700     7.8550 oh         1 DI7      -0.554100
@<TRIPOS>BOND
     1     1     3 1   
     2     1     4 1   
     3     1    14 1   
     4     2     4 1   
     5     2    15 1   
     6     2    16 1   
     7     4     5 1   
     8     4    17 1   
     9     5     6 1   
    10     5    18 1   
    11     5    19 1   
    12     6     8 ar  
    13     6     9 ar  
    14     7    10 ar  
    15     7    11 ar  
    16     7    29 1   
    17     8    10 ar  
    18     8    12 1   
    19     9    11 ar  
    20     9    13 1   
    21    10    21 1   
    22    11    22 1   
    23    12    23 1   
    24    12    24 1   
    25    12    25 1   
    26    13    26 1   
    27    13    27 1   
    28    13    28 1   
    29    20    29 1   
@<TRIPOS>SUBSTRUCTURE
     1 DI7         1 TEMP              0 ****  ****    0 ROOT
