@<TRIPOS>MOLECULE
DI7
   29    29     1     0     0
SMALL
bcc


@<TRIPOS>ATOM
      1 C          -48.1290   -33.3340     6.1470 c          1 DI7       0.926600
      2 N          -46.6440   -32.9190     4.2030 n8         1 DI7      -0.861800
      3 O          -49.3000   -33.7180     6.3380 o          1 DI7      -0.829300
      4 CA         -47.4040   -33.9380     4.9210 c3         1 DI7       0.021500
      5 CB         -46.4130   -35.0320     5.3550 c3         1 DI7      -0.013100
      6 CD         -47.0320   -36.2130     6.0590 ca         1 DI7      -0.058300
      7 CZ         -48.2390   -38.3860     7.3720 ca         1 DI7       0.116100
      8 CD1        -47.7490   -37.1810     5.3370 ca         1 DI7      -0.019800
      9 CD2        -46.8970   -36.3750     7.4450 ca         1 DI7      -0.019800
     10 CE1        -48.3460   -38.2520     5.9950 ca         1 DI7      -0.201000
     11 CE2        -47.5040   -37.4510     8.0880 ca         1 DI7      -0.201000
     12 CE3        -47.8930   -37.1060     3.8410 c3         1 DI7      -0.050800
     13 CE4        -46.0790   -35.4270     8.2800 c3         1 DI7      -0.050800
     14 OXT        -47.4830   -32.5290     6.8490 o          1 DI7      -0.829300
     15 HN         -46.3010   -33.3200     3.3380 hn         1 DI7       0.306800
     16 HNA        -47.2610   -32.1660     3.9230 hn         1 DI7       0.306800
     17 HA         -48.1720   -34.4010     4.2890 h1         1 DI7       0.004700
     18 HB         -45.8830   -35.3760     4.4600 hc         1 DI7       0.033700
     19 HBA        -45.6560   -34.5640     5.9840 hc         1 DI7       0.033700
     20 HOH        -48.7000   -39.4280     8.9100 ho         1 DI7       0.411000
     21 HE1        -48.8970   -38.9940     5.4280 ha         1 DI7       0.118500
     22 HE2        -47.3930   -37.5600     9.1620 ha         1 DI7       0.118500
     23 HE3        -46.9520   -36.8540     3.3510 hc         1 DI7       0.042033
     24 HE3A       -48.2340   -38.0570     3.4340 hc         1 DI7       0.042033
     25 HE3B       -48.6170   -36.3460     3.5430 hc         1 DI7       0.042033
     26 HE4        -46.4080   -34.3940     8.1690 hc         1 DI7       0.042033
     27 HE4A       -46.1380   -35.6880     9.3350 hc         1 DI7       0.042033
     28 HE4B       -45.0250   -35.4570     7.9960 hc         1 DI7       0.042033
     29 OH         -48.8520   -39.4400     7.9590 oh         1 DI7      -0.515100
@<TRIPOS>BOND
     1     1     3 1   
     2     1     4 1   
     3     1    14 1   
     4     2     4 1   
     5     2    15 1   
     6     2    16 1   
     7     4     5 1   
     8     4    17 1   
     9     5     6 1   
    10     5    18 1   
    11     5    19 1   
    12     6     8 ar  
    13     6     9 ar  
    14     7    10 ar  
    15     7    11 ar  
    16     7    29 1   
    17     8    10 ar  
    18     8    12 1   
    19     9    11 ar  
    20     9    13 1   
    21    10    21 1   
    22    11    22 1   
    23    12    23 1   
    24    12    24 1   
    25    12    25 1   
    26    13    26 1   
    27    13    27 1   
    28    13    28 1   
    29    20    29 1   
@<TRIPOS>SUBSTRUCTURE
     1 DI7         1 TEMP              0 ****  ****    0 ROOT
