@<TRIPOS>MOLECULE
DI8
   23    24     1     0     0
SMALL
bcc


@<TRIPOS>ATOM
      1 C          -50.6560   -33.9440     5.0500 c          1 DI8       0.939600
      2 N          -48.9990   -33.7480     6.9310 n7         1 DI8      -0.757200
      3 O          -51.6240   -34.5820     4.5890 o          1 DI8      -0.828300
      4 C1         -50.8040   -35.3980     7.1530 c6         1 DI8      -0.049100
      5 C2         -51.5400   -34.4430     8.0540 ca         1 DI8      -0.036300
      6 C3         -52.7500   -34.8060     8.6460 ca         1 DI8      -0.129000
      7 C4         -53.4350   -33.9350     9.4770 ca         1 DI8      -0.148000
      8 C5         -52.9130   -32.6700     9.7250 ca         1 DI8      -0.150000
      9 C6         -51.7140   -32.3000     9.1390 ca         1 DI8      -0.134000
     10 C7         -51.0150   -33.1750     8.3090 ca         1 DI8      -0.090300
     11 C8         -49.7200   -32.7290     7.6680 c6         1 DI8       0.208100
     12 CA         -49.8780   -34.6480     6.1960 c6         1 DI8       0.021500
     13 OXT        -50.2350   -32.8420     4.6540 o          1 DI8      -0.828300
     14 HN         -48.4630   -34.3030     7.5860 hn         1 DI8       0.303800
     15 H1         -51.5120   -36.0210     6.6070 hc         1 DI8       0.040200
     16 H1A        -50.2060   -36.0820     7.7670 hc         1 DI8       0.040200
     17 H3         -53.1600   -35.7890     8.4430 ha         1 DI8       0.118000
     18 H4         -54.3740   -34.2360     9.9250 ha         1 DI8       0.108000
     19 H5         -53.4390   -31.9780    10.3710 ha         1 DI8       0.108000
     20 H6         -51.3060   -31.3120     9.3280 ha         1 DI8       0.114000
     21 H8         -49.0560   -32.3330     8.4410 h1         1 DI8       0.054200
     22 H8A        -49.9350   -31.8890     7.0020 h1         1 DI8       0.054200
     23 HA         -49.2320   -35.3880     5.7060 h1         1 DI8       0.041700
@<TRIPOS>BOND
     1     1     3 1   
     2     1    12 1   
     3     1    13 1   
     4     2    11 1   
     5     2    12 1   
     6     2    14 1   
     7     4     5 1   
     8     4    12 1   
     9     4    15 1   
    10     4    16 1   
    11     5     6 ar  
    12     5    10 ar  
    13     6     7 ar  
    14     6    17 1   
    15     7     8 ar  
    16     7    18 1   
    17     8     9 ar  
    18     8    19 1   
    19     9    10 ar  
    20     9    20 1   
    21    10    11 1   
    22    11    21 1   
    23    11    22 1   
    24    12    23 1   
@<TRIPOS>SUBSTRUCTURE
     1 DI8         1 TEMP              0 ****  ****    0 ROOT
