@<TRIPOS>MOLECULE
DI8
   23    24     1     0     0
SMALL
No Charge or Current Charge


@<TRIPOS>ATOM
      1 C          -50.5050   -34.1570     4.7900 c          1 DI8       0.729000
      2 N          -49.0270   -33.7740     6.9770 n7         1 DI8      -0.812400
      3 O          -50.1580   -34.7520     3.7750 o          1 DI8      -0.723000
      4 C1         -50.9930   -35.3430     7.0520 c6         1 DI8      -0.049100
      5 C2         -51.6300   -34.3760     8.0560 ca         1 DI8      -0.036300
      6 C3         -52.8010   -34.7630     8.7370 ca         1 DI8      -0.111000
      7 C4         -53.3930   -33.9050     9.6790 ca         1 DI8      -0.130000
      8 C5         -52.8150   -32.6550     9.9470 ca         1 DI8      -0.132000
      9 C6         -51.6460   -32.2630     9.2750 ca         1 DI8      -0.116000
     10 C7         -51.0440   -33.1180     8.3310 ca         1 DI8      -0.090300
     11 C8         -49.7780   -32.6540     7.5980 c6         1 DI8       0.208100
     12 CA         -49.8980   -34.7000     6.1590 c6         1 DI8       0.021500
     13 OXT        -50.8930   -32.9960     4.7310 o          1 DI8      -0.723000
     14 HN         -48.6210   -34.3240     7.7410 hn         1 DI8       0.359000
     15 H1         -51.7670   -35.7980     6.4190 hc         1 DI8       0.040200
     16 H1A        -50.5440   -36.1720     7.6160 hc         1 DI8       0.040200
     17 H3         -53.2510   -35.7330     8.5370 ha         1 DI8       0.100000
     18 H4         -54.2970   -34.2110    10.2000 ha         1 DI8       0.090000
     19 H5         -53.2730   -31.9890    10.6760 ha         1 DI8       0.090000
     20 H6         -51.2060   -31.2910     9.4870 ha         1 DI8       0.096000
     21 H8         -49.1190   -32.1330     8.3100 h1         1 DI8       0.054200
     22 H8A        -50.0600   -31.9150     6.8350 h1         1 DI8       0.054200
     23 HA         -49.2470   -35.5290     5.8420 h1         1 DI8       0.041700
@<TRIPOS>BOND
     1     1     3 1   
     2     1    12 1   
     3     1    13 1   
     4     2    11 1   
     5     2    12 1   
     6     2    14 1   
     7     4     5 1   
     8     4    12 1   
     9     4    15 1   
    10     4    16 1   
    11     5     6 ar  
    12     5    10 ar  
    13     6     7 ar  
    14     6    17 1   
    15     7     8 ar  
    16     7    18 1   
    17     8     9 ar  
    18     8    19 1   
    19     9    10 ar  
    20     9    20 1   
    21    10    11 1   
    22    11    21 1   
    23    11    22 1   
    24    12    23 1   
@<TRIPOS>SUBSTRUCTURE
     1 DI8         1 TEMP              0 ****  ****    0 ROOT
