@<TRIPOS>MOLECULE
DI9
   35    36     1     0     0
SMALL
No Charge or Current Charge


@<TRIPOS>ATOM
      1 CAB         -2.4540     1.1350     0.3850 c5         1 DI9      -0.096650
      2 CAJ         -3.8010     0.6760     1.0360 c5         1 DI9      -0.079650
      3 CAK         -3.6810    -0.8690     1.1160 c5         1 DI9      -0.079650
      4 CAL         -2.9460    -1.1750    -0.2090 c5         1 DI9      -0.096650
      5 CAC         -1.7660    -0.1870    -0.0850 c5         1 DI9       0.214800
      6 OAD         -1.2070    -0.0180    -1.4060 os         1 DI9      -0.588400
      7 PAE          0.1000     0.8920    -1.5570 p5         1 DI9       1.339100
      8 NAM         -0.0390     1.0210    -3.1390 n8         1 DI9      -1.169300
      9 OAA          0.1500     2.2490    -0.9700 o          1 DI9      -0.582000
     10 OAF          1.3410    -0.1220    -1.4420 os         1 DI9      -0.588400
     11 CAG          1.8000    -0.5430    -0.1370 c5         1 DI9       0.214800
     12 CAH          3.0920    -1.4000    -0.3490 c5         1 DI9      -0.096650
     13 CAI          4.2210    -0.6050     0.3690 c5         1 DI9      -0.079650
     14 CAO          3.4440     0.0830     1.5150 c5         1 DI9      -0.079650
     15 CAN          2.2690     0.6850     0.7090 c5         1 DI9      -0.096650
     16 HAB1        -1.8230     1.6700     1.1040 hc         1 DI9       0.056075
     17 HAB2        -2.6490     1.8230    -0.4460 hc         1 DI9       0.056075
     18 HAJ1        -3.9620     1.1280     2.0220 hc         1 DI9       0.046575
     19 HAJ2        -4.6520     0.9690     0.4100 hc         1 DI9       0.046575
     20 HAK1        -3.0980    -1.1880     1.9890 hc         1 DI9       0.046575
     21 HAK2        -4.6590    -1.3600     1.1770 hc         1 DI9       0.046575
     22 HAL1        -3.5730    -0.9680    -1.0850 hc         1 DI9       0.056075
     23 HAL2        -2.6110    -2.2160    -0.2720 hc         1 DI9       0.056075
     24 HAC         -1.0120    -0.5420     0.6300 h1         1 DI9       0.050200
     25 HAM1        -0.7680     0.3060    -3.1430 hn         1 DI9       0.471500
     26 HAM2        -0.5520     1.8980    -3.1560 hn         1 DI9       0.471500
     27 HAG          1.0250    -1.1330     0.3700 h1         1 DI9       0.050200
     28 HAH1         2.9660    -2.3890     0.1050 hc         1 DI9       0.056075
     29 HAH2         3.3250    -1.5680    -1.4070 hc         1 DI9       0.056075
     30 HAI1         5.0210    -1.2570     0.7370 hc         1 DI9       0.046575
     31 HAI2         4.6830     0.1300    -0.3010 hc         1 DI9       0.046575
     32 HAO1         3.1020    -0.6330     2.2730 hc         1 DI9       0.046575
     33 HAO2         4.0390     0.8500     2.0250 hc         1 DI9       0.046575
     34 HAN1         2.6150     1.5160     0.0810 hc         1 DI9       0.056075
     35 HAN2         1.4770     1.0690     1.3620 hc         1 DI9       0.056075
@<TRIPOS>BOND
     1     1     2 1   
     2     1     5 1   
     3     1    16 1   
     4     1    17 1   
     5     2     3 1   
     6     2    18 1   
     7     2    19 1   
     8     3     4 1   
     9     3    20 1   
    10     3    21 1   
    11     4     5 1   
    12     4    22 1   
    13     4    23 1   
    14     5     6 1   
    15     5    24 1   
    16     6     7 1   
    17     7     8 1   
    18     7     9 2   
    19     7    10 1   
    20     8    25 1   
    21     8    26 1   
    22    10    11 1   
    23    11    12 1   
    24    11    15 1   
    25    11    27 1   
    26    12    13 1   
    27    12    28 1   
    28    12    29 1   
    29    13    14 1   
    30    13    30 1   
    31    13    31 1   
    32    14    15 1   
    33    14    32 1   
    34    14    33 1   
    35    15    34 1   
    36    15    35 1   
@<TRIPOS>SUBSTRUCTURE
     1 DI9         1 TEMP              0 ****  ****    0 ROOT
