@<TRIPOS>MOLECULE
DI9
   35    36     1     0     0
SMALL
bcc


@<TRIPOS>ATOM
      1 CAB         -3.0410     0.8470    -0.6040 c5         1 DI9      -0.096650
      2 CAJ         -4.4920     0.4300    -0.9240 c5         1 DI9      -0.079650
      3 CAK         -4.7750    -0.7970    -0.0430 c5         1 DI9      -0.079650
      4 CAL         -3.4020    -1.4300     0.1480 c5         1 DI9      -0.096650
      5 CAC         -2.5160    -0.2150     0.3730 c5         1 DI9       0.191600
      6 OAD         -1.1410    -0.5470     0.1500 os         1 DI9      -0.565200
      7 PAE          0.0050     0.1840     1.0050 p5         1 DI9       1.568400
      8 NAM          0.0180     1.8050     0.6910 n8         1 DI9      -1.058900
      9 OAA         -0.0350    -0.0790     2.4630 o          1 DI9      -0.811300
     10 OAF          1.2210    -0.4470     0.1870 os         1 DI9      -0.565200
     11 CAG          2.5790    -0.2600     0.6270 c5         1 DI9       0.191600
     12 CAH          3.4420    -1.4350     0.1320 c5         1 DI9      -0.096650
     13 CAI          4.3870    -0.8430    -0.9140 c5         1 DI9      -0.079650
     14 CAO          4.6120     0.5780    -0.4030 c5         1 DI9      -0.079650
     15 CAN          3.2090     1.0060     0.0240 c5         1 DI9      -0.096650
     16 HAB1        -2.9820     1.8490    -0.1780 hc         1 DI9       0.056075
     17 HAB2        -2.4260     0.8480    -1.5060 hc         1 DI9       0.056075
     18 HAJ1        -5.2060     1.2340    -0.7470 hc         1 DI9       0.046575
     19 HAJ2        -4.5800     0.1580    -1.9770 hc         1 DI9       0.046575
     20 HAK1        -5.1790    -0.4860     0.9250 hc         1 DI9       0.046575
     21 HAK2        -5.4980    -1.4800    -0.4880 hc         1 DI9       0.046575
     22 HAL1        -3.0920    -1.9420    -0.7690 hc         1 DI9       0.056075
     23 HAL2        -3.3550    -2.1460     0.9690 hc         1 DI9       0.056075
     24 HAC         -2.6520     0.1280     1.4050 h1         1 DI9       0.050200
     25 HAM1        -0.0430     2.1300    -0.2630 hn         1 DI9       0.416300
     26 HAM2        -0.4600     2.4120     1.3400 hn         1 DI9       0.416300
     27 HAG          2.5910    -0.2200     1.7190 h1         1 DI9       0.050200
     28 HAH1         4.0200    -1.8280     0.9710 hc         1 DI9       0.056075
     29 HAH2         2.8310    -2.2560    -0.2450 hc         1 DI9       0.056075
     30 HAI1         5.3070    -1.4180    -1.0250 hc         1 DI9       0.046575
     31 HAI2         3.9010    -0.8080    -1.8930 hc         1 DI9       0.046575
     32 HAO1         5.2870     0.5620     0.4570 hc         1 DI9       0.046575
     33 HAO2         5.0470     1.2450    -1.1470 hc         1 DI9       0.046575
     34 HAN1         2.6370     1.2980    -0.8600 hc         1 DI9       0.056075
     35 HAN2         3.1970     1.8500     0.7130 hc         1 DI9       0.056075
@<TRIPOS>BOND
     1     1     2 1   
     2     1     5 1   
     3     1    16 1   
     4     1    17 1   
     5     2     3 1   
     6     2    18 1   
     7     2    19 1   
     8     3     4 1   
     9     3    20 1   
    10     3    21 1   
    11     4     5 1   
    12     4    22 1   
    13     4    23 1   
    14     5     6 1   
    15     5    24 1   
    16     6     7 1   
    17     7     8 1   
    18     7     9 2   
    19     7    10 1   
    20     8    25 1   
    21     8    26 1   
    22    10    11 1   
    23    11    12 1   
    24    11    15 1   
    25    11    27 1   
    26    12    13 1   
    27    12    28 1   
    28    12    29 1   
    29    13    14 1   
    30    13    30 1   
    31    13    31 1   
    32    14    15 1   
    33    14    32 1   
    34    14    33 1   
    35    15    34 1   
    36    15    35 1   
@<TRIPOS>SUBSTRUCTURE
     1 DI9         1 TEMP              0 ****  ****    0 ROOT
