@<TRIPOS>MOLECULE
DIA
   30    29     1     0     0
SMALL
bcc


@<TRIPOS>ATOM
      1 N1          -0.2920     0.0140     5.6430 n8         1 DIA      -0.885300
      2 C1           0.5210    -0.0250     4.4350 c3         1 DIA       0.149800
      3 C2          -0.3510    -0.0070     3.1880 c3         1 DIA      -0.078400
      4 C3           0.4610    -0.0350     1.8990 c3         1 DIA      -0.074900
      5 C4          -0.4040    -0.0230     0.6450 c3         1 DIA      -0.074400
      6 C5           0.4080    -0.0280    -0.6440 c3         1 DIA      -0.074400
      7 C6          -0.4570    -0.0170    -1.8980 c3         1 DIA      -0.074900
      8 C7           0.3560     0.0020    -3.1860 c3         1 DIA      -0.078400
      9 C8          -0.5140     0.0070    -4.4340 c3         1 DIA       0.149800
     10 N8           0.3020     0.0340    -5.6410 n8         1 DIA      -0.885300
     11 HN11         0.3080    -0.0320     6.4570 hn         1 DIA       0.335550
     12 HN12        -0.7570     0.9120     5.7000 hn         1 DIA       0.335550
     13 HC11         1.2480     0.7980     4.3700 h1         1 DIA       0.025700
     14 HC12         1.1070    -0.9490     4.4460 h1         1 DIA       0.025700
     15 HC21        -1.0340    -0.8620     3.2160 hc         1 DIA       0.045200
     16 HC22        -0.9790     0.8920     3.2000 hc         1 DIA       0.045200
     17 HC31         1.1400     0.8250     1.8770 hc         1 DIA       0.036700
     18 HC32         1.1000    -0.9250     1.8900 hc         1 DIA       0.036700
     19 HC41        -1.0730    -0.8900     0.6570 hc         1 DIA       0.038200
     20 HC42        -1.0530     0.8600     0.6610 hc         1 DIA       0.038200
     21 HC51         1.0740     0.8420    -0.6550 hc         1 DIA       0.038200
     22 HC52         1.0600    -0.9080    -0.6600 hc         1 DIA       0.038200
     23 HC61        -1.1130    -0.8950    -1.8940 hc         1 DIA       0.036700
     24 HC62        -1.1190     0.8560    -1.8720 hc         1 DIA       0.036700
     25 HC71         1.0030     0.8870    -3.1930 hc         1 DIA       0.045200
     26 HC72         1.0220    -0.8660    -3.2180 hc         1 DIA       0.045200
     27 HC81        -1.1190    -0.9040    -4.4500 h1         1 DIA       0.025700
     28 HC82        -1.2240     0.8450    -4.3670 h1         1 DIA       0.025700
     29 HN81        -0.2980     0.0010    -6.4550 hn         1 DIA       0.335550
     30 HN82         0.7810     0.9250    -5.6950 hn         1 DIA       0.335550
@<TRIPOS>BOND
     1     1     2 1   
     2     1    11 1   
     3     1    12 1   
     4     2     3 1   
     5     2    13 1   
     6     2    14 1   
     7     3     4 1   
     8     3    15 1   
     9     3    16 1   
    10     4     5 1   
    11     4    17 1   
    12     4    18 1   
    13     5     6 1   
    14     5    19 1   
    15     5    20 1   
    16     6     7 1   
    17     6    21 1   
    18     6    22 1   
    19     7     8 1   
    20     7    23 1   
    21     7    24 1   
    22     8     9 1   
    23     8    25 1   
    24     8    26 1   
    25     9    10 1   
    26     9    27 1   
    27     9    28 1   
    28    10    29 1   
    29    10    30 1   
@<TRIPOS>SUBSTRUCTURE
     1 DIA         1 TEMP              0 ****  ****    0 ROOT
