@<TRIPOS>MOLECULE
DIA
   30    29     1     0     0
SMALL
No Charge or Current Charge


@<TRIPOS>ATOM
      1 N1          -0.2790    -0.0310     5.7250 n8         1 DIA      -0.995700
      2 C1           0.5330    -0.0340     4.4950 c3         1 DIA       0.149800
      3 C2          -0.3520    -0.0210     3.2310 c3         1 DIA      -0.078400
      4 C3           0.4710    -0.0260     1.9230 c3         1 DIA      -0.074900
      5 C4          -0.4090    -0.0150     0.6540 c3         1 DIA      -0.074400
      6 C5           0.4150    -0.0200    -0.6530 c3         1 DIA      -0.074400
      7 C6          -0.4650    -0.0080    -1.9220 c3         1 DIA      -0.074900
      8 C7           0.3570    -0.0130    -3.2300 c3         1 DIA      -0.078400
      9 C8          -0.5280    -0.0020    -4.4940 c3         1 DIA       0.149800
     10 N8           0.2840    -0.0090    -5.7240 n8         1 DIA      -0.995700
     11 HN11         0.3480     0.0250     6.5380 hn         1 DIA       0.390750
     12 HN12        -0.8100     0.8470     5.7710 hn         1 DIA       0.390750
     13 HC11         1.1840     0.8520     4.5000 h1         1 DIA       0.025700
     14 HC12         1.1670    -0.9320     4.4940 h1         1 DIA       0.025700
     15 HC21        -1.0120    -0.8980     3.2440 hc         1 DIA       0.045200
     16 HC22        -0.9950     0.8670     3.2470 hc         1 DIA       0.045200
     17 HC31         1.1330     0.8490     1.9110 hc         1 DIA       0.036700
     18 HC32         1.1150    -0.9150     1.9070 hc         1 DIA       0.036700
     19 HC41        -1.0700    -0.8900     0.6660 hc         1 DIA       0.038200
     20 HC42        -1.0530     0.8740     0.6700 hc         1 DIA       0.038200
     21 HC51         1.0760     0.8560    -0.6650 hc         1 DIA       0.038200
     22 HC52         1.0590    -0.9080    -0.6690 hc         1 DIA       0.038200
     23 HC61        -1.1270    -0.8830    -1.9100 hc         1 DIA       0.036700
     24 HC62        -1.1090     0.8800    -1.9060 hc         1 DIA       0.036700
     25 HC71         1.0180     0.8630    -3.2420 hc         1 DIA       0.045200
     26 HC72         1.0000    -0.9030    -3.2470 hc         1 DIA       0.045200
     27 HC81        -1.1790    -0.8870    -4.4970 h1         1 DIA       0.025700
     28 HC82        -1.1610     0.8960    -4.4950 h1         1 DIA       0.025700
     29 HN81        -0.3400     0.0630    -6.5370 hn         1 DIA       0.390750
     30 HN82         0.8340     0.8580    -5.7660 hn         1 DIA       0.390750
@<TRIPOS>BOND
     1     1     2 1   
     2     1    11 1   
     3     1    12 1   
     4     2     3 1   
     5     2    13 1   
     6     2    14 1   
     7     3     4 1   
     8     3    15 1   
     9     3    16 1   
    10     4     5 1   
    11     4    17 1   
    12     4    18 1   
    13     5     6 1   
    14     5    19 1   
    15     5    20 1   
    16     6     7 1   
    17     6    21 1   
    18     6    22 1   
    19     7     8 1   
    20     7    23 1   
    21     7    24 1   
    22     8     9 1   
    23     8    25 1   
    24     8    26 1   
    25     9    10 1   
    26     9    27 1   
    27     9    28 1   
    28    10    29 1   
    29    10    30 1   
@<TRIPOS>SUBSTRUCTURE
     1 DIA         1 TEMP              0 ****  ****    0 ROOT
