@<TRIPOS>MOLECULE
DIB
   21    20     1     0     0
SMALL
abcg2


@<TRIPOS>ATOM
      1 N            0.1650     0.2180    -3.3600 n8         1 DIB      -0.995200
      2 CA          -0.4890    -0.2890    -2.1630 c3         1 DIB       0.149800
      3 CB           0.1910     0.2370    -0.9080 c3         1 DIB      -0.080400
      4 CG          -0.4920    -0.2620     0.3570 c3         1 DIB       0.166800
      5 ND           0.0960     0.2600     1.5780 n3         1 DIB      -0.713600
      6 CE1         -0.7970     0.1000     2.7040 c3         1 DIB       0.150600
      7 CE2          1.3830    -0.3360     1.8650 c3         1 DIB       0.150600
      8 H           -0.2760    -0.1800    -4.1790 hn         1 DIB       0.392000
      9 HN2          0.0090     1.2170    -3.4270 hn         1 DIB       0.392000
     10 HA1         -0.4220    -1.3810    -2.1750 h1         1 DIB       0.024700
     11 HA2         -1.5620    -0.0510    -2.1150 h1         1 DIB       0.024700
     12 HB1          0.1680     1.3320    -0.9090 hc         1 DIB       0.054700
     13 HB2          1.2440    -0.0550    -0.9330 hc         1 DIB       0.054700
     14 HG1         -0.5100    -1.3670     0.3580 h1         1 DIB       0.026200
     15 HG2         -1.5390     0.0540     0.3260 h1         1 DIB       0.026200
     16 HE11        -0.3540     0.5430     3.5980 h1         1 DIB       0.029533
     17 HE12        -1.7410     0.6140     2.5130 h1         1 DIB       0.029533
     18 HE13        -1.0290    -0.9520     2.9360 h1         1 DIB       0.029533
     19 HE21         2.0810    -0.1770     1.0440 h1         1 DIB       0.029533
     20 HE22         1.8170     0.1240     2.7550 h1         1 DIB       0.029533
     21 HE23         1.3230    -1.4220     2.0470 h1         1 DIB       0.029533
@<TRIPOS>BOND
     1     1     2 1   
     2     1     8 1   
     3     1     9 1   
     4     2     3 1   
     5     2    10 1   
     6     2    11 1   
     7     3     4 1   
     8     3    12 1   
     9     3    13 1   
    10     4     5 1   
    11     4    14 1   
    12     4    15 1   
    13     5     6 1   
    14     5     7 1   
    15     6    16 1   
    16     6    17 1   
    17     6    18 1   
    18     7    19 1   
    19     7    20 1   
    20     7    21 1   
@<TRIPOS>SUBSTRUCTURE
     1 DIB         1 TEMP              0 ****  ****    0 ROOT
