@<TRIPOS>MOLECULE
DIB
   21    20     1     0     0
SMALL
No Charge or Current Charge


@<TRIPOS>ATOM
      1 N            0.1870     0.1170    -3.4230 n8         1 DIB      -0.995200
      2 CA          -0.5380    -0.2780    -2.2010 c3         1 DIB       0.149800
      3 CB           0.2120     0.1570    -0.9270 c3         1 DIB      -0.080400
      4 CG          -0.5330    -0.2580     0.3620 c3         1 DIB       0.166800
      5 ND           0.0580     0.2600     1.6230 n3         1 DIB      -0.713600
      6 CE1         -0.8290     0.0310     2.7860 c3         1 DIB       0.150600
      7 CE2          1.4370    -0.2190     1.8820 c3         1 DIB       0.150600
      8 H           -0.3750    -0.1410    -4.2440 hn         1 DIB       0.392000
      9 HN2          0.2270     1.1420    -3.4720 hn         1 DIB       0.392000
     10 HA1         -0.6600    -1.3700    -2.2030 h1         1 DIB       0.024700
     11 HA2         -1.5360     0.1830    -2.2200 h1         1 DIB       0.024700
     12 HB1          0.3380     1.2460    -0.9320 hc         1 DIB       0.054700
     13 HB2          1.2120    -0.2910    -0.9370 hc         1 DIB       0.054700
     14 HG1         -0.5880    -1.3550     0.3990 h1         1 DIB       0.026200
     15 HG2         -1.5650     0.1100     0.2760 h1         1 DIB       0.026200
     16 HE11        -0.4120     0.4940     3.6910 h1         1 DIB       0.029533
     17 HE12        -1.8210     0.4690     2.6110 h1         1 DIB       0.029533
     18 HE13        -0.9560    -1.0430     2.9770 h1         1 DIB       0.029533
     19 HE21         2.1250     0.0990     1.0880 h1         1 DIB       0.029533
     20 HE22         1.8180     0.1900     2.8270 h1         1 DIB       0.029533
     21 HE23         1.4660    -1.3150     1.9470 h1         1 DIB       0.029533
@<TRIPOS>BOND
     1     1     2 1   
     2     1     8 1   
     3     1     9 1   
     4     2     3 1   
     5     2    10 1   
     6     2    11 1   
     7     3     4 1   
     8     3    12 1   
     9     3    13 1   
    10     4     5 1   
    11     4    14 1   
    12     4    15 1   
    13     5     6 1   
    14     5     7 1   
    15     6    16 1   
    16     6    17 1   
    17     6    18 1   
    18     7    19 1   
    19     7    20 1   
    20     7    21 1   
@<TRIPOS>SUBSTRUCTURE
     1 DIB         1 TEMP              0 ****  ****    0 ROOT
