@<TRIPOS>MOLECULE
DIC
   17    18     1     0     0
SMALL
bcc


@<TRIPOS>ATOM
      1 C1           0.7050    -2.0220     0.0980 ca         1 DIC      -0.085000
      2 C2           1.7920    -2.8750     0.0860 ca         1 DIC      -0.125000
      3 C3           3.0810    -2.3640    -0.0760 ca         1 DIC       0.020200
      4 C4           3.2450    -0.9770    -0.2230 ca         1 DIC      -0.193600
      5 C5           2.1390    -0.1260    -0.2070 ca         1 DIC      -0.057000
      6 C6           0.8720    -0.6460    -0.0480 ca         1 DIC      -0.140000
      7 C7           4.5720    -0.4010    -0.3960 c          1 DIC       0.766200
      8 O7           4.8450     0.7580    -0.5300 o          1 DIC      -0.536500
      9 C8           4.2650    -3.1900    -0.1000 cc         1 DIC      -0.066800
     10 C9           5.4600    -2.6080    -0.2630 cd         1 DIC       0.228500
     11 O1           5.6150    -1.2880    -0.4050 os         1 DIC      -0.330200
     12 CL1          4.1390    -4.8890     0.0780 cl         1 DIC      -0.061400
     13 CL2          6.9380    -3.4370    -0.3120 cl         1 DIC      -0.008400
     14 H1          -0.2880    -2.4330     0.2240 ha         1 DIC       0.139000
     15 H2           1.6370    -3.9380     0.2010 ha         1 DIC       0.152000
     16 H5           2.2810     0.9400    -0.3200 ha         1 DIC       0.157000
     17 H6           0.0140     0.0110    -0.0360 ha         1 DIC       0.143000
@<TRIPOS>BOND
     1     1     2 ar  
     2     1     6 ar  
     3     1    14 1   
     4     2     3 ar  
     5     2    15 1   
     6     3     4 ar  
     7     3     9 1   
     8     4     5 ar  
     9     4     7 1   
    10     5     6 ar  
    11     5    16 1   
    12     6    17 1   
    13     7     8 2   
    14     7    11 1   
    15     9    10 2   
    16     9    12 1   
    17    10    11 1   
    18    10    13 1   
@<TRIPOS>SUBSTRUCTURE
     1 DIC         1 TEMP              0 ****  ****    0 ROOT
