@<TRIPOS>MOLECULE
DIC
   17    18     1     0     0
SMALL
No Charge or Current Charge


@<TRIPOS>ATOM
      1 C1           0.6660    -2.0270     0.1030 ca         1 DIC      -0.067000
      2 C2           1.7830    -2.8780     0.0870 ca         1 DIC      -0.107000
      3 C3           3.0850    -2.3530    -0.0770 ca         1 DIC       0.020200
      4 C4           3.2580    -0.9710    -0.2250 ca         1 DIC      -0.193600
      5 C5           2.1320    -0.1170    -0.2090 ca         1 DIC      -0.039000
      6 C6           0.8410    -0.6440    -0.0450 ca         1 DIC      -0.122000
      7 C7           4.6380    -0.3980    -0.4010 c          1 DIC       0.690700
      8 O7           4.8100     0.8060    -0.5320 o          1 DIC      -0.461000
      9 C8           4.2610    -3.2100    -0.0980 cc         1 DIC       0.008800
     10 C9           5.4970    -2.6070    -0.2650 cd         1 DIC       0.304100
     11 O1           5.7130    -1.2560    -0.4130 os         1 DIC      -0.330200
     12 Cl1          4.1140    -4.9420     0.0810 cl         1 DIC      -0.137000
     13 Cl2          6.9960    -3.4820    -0.3120 cl         1 DIC      -0.084000
     14 H1          -0.3320    -2.4400     0.2300 ha         1 DIC       0.121000
     15 H2           1.6200    -3.9460     0.2040 ha         1 DIC       0.134000
     16 H5           2.2500     0.9600    -0.3230 ha         1 DIC       0.139000
     17 H6          -0.0210     0.0190    -0.0330 ha         1 DIC       0.125000
@<TRIPOS>BOND
     1     1     2 ar  
     2     1     6 ar  
     3     1    14 1   
     4     2     3 ar  
     5     2    15 1   
     6     3     4 ar  
     7     3     9 1   
     8     4     5 ar  
     9     4     7 1   
    10     5     6 ar  
    11     5    16 1   
    12     6    17 1   
    13     7     8 2   
    14     7    11 1   
    15     9    10 2   
    16     9    12 1   
    17    10    11 1   
    18    10    13 1   
@<TRIPOS>SUBSTRUCTURE
     1 DIC         1 TEMP              0 ****  ****    0 ROOT
