@<TRIPOS>MOLECULE
DID
   52    53     1     0     0
SMALL
No Charge or Current Charge


@<TRIPOS>ATOM
      1 C4           0.1560     0.0690     8.4130 ca         1 DID      -0.212400
      2 C5          -1.1760    -0.0860     7.9640 ca         1 DID      -0.044000
      3 C6          -1.4650    -0.1340     6.5900 ca         1 DID      -0.182750
      4 C1          -0.4420    -0.0130     5.6400 ca         1 DID       0.162600
      5 C2           0.8870     0.1630     6.0740 ca         1 DID      -0.182750
      6 C3           1.1810     0.2100     7.4490 ca         1 DID      -0.044000
      7 C9           0.4640     0.1610     9.8710 ce         1 DID       0.666300
      8 N1           1.6540    -0.3020    10.2930 nv         1 DID      -1.053700
      9 N2          -0.3860     0.5040    10.7470 n2         1 DID      -0.839600
     10 O1          -0.7900    -0.0670     4.3060 os         1 DID      -0.347100
     11 C7           0.1850     0.0480     3.2560 c3         1 DID       0.165600
     12 C8          -0.5620    -0.0590     1.9120 c3         1 DID      -0.082400
     13 C10          0.3780     0.0500     0.6910 c3         1 DID      -0.073400
     14 C11         -0.3680    -0.0560    -0.6570 c3         1 DID      -0.073400
     15 C20          0.5720     0.0520    -1.8790 c3         1 DID      -0.082400
     16 C19         -0.1750    -0.0540    -3.2230 c3         1 DID       0.165600
     17 O2           0.8000     0.0610    -4.2730 os         1 DID      -0.347100
     18 C15          0.4520     0.0080    -5.6070 ca         1 DID       0.162600
     19 C14         -0.8770    -0.1690    -6.0410 ca         1 DID      -0.182750
     20 C13         -1.1720    -0.2150    -7.4160 ca         1 DID      -0.044000
     21 C12         -0.1470    -0.0710    -8.3810 ca         1 DID      -0.212400
     22 C17          1.1850     0.0810    -7.9310 ca         1 DID      -0.044000
     23 C16          1.4750     0.1280    -6.5570 ca         1 DID      -0.182750
     24 C18         -0.4420    -0.1550    -9.8460 ce         1 DID       0.666300
     25 N3          -1.6760     0.1940   -10.2580 nv         1 DID      -1.053700
     26 N4           0.4400    -0.4170   -10.7190 n2         1 DID      -0.839600
     27 H5          -1.9940    -0.1880     8.6760 ha         1 DID       0.123500
     28 H6          -2.4920    -0.2640     6.2590 ha         1 DID       0.124000
     29 H2           1.7030     0.2710     5.3650 ha         1 DID       0.124000
     30 H3           2.2130     0.3670     7.7590 ha         1 DID       0.123500
     31 HN11         1.6740    -0.5220    11.2810 hn         1 DID       0.462500
     32 HN12         2.1020    -0.9720     9.6800 hn         1 DID       0.462500
     33 HN2         -1.2090     0.8760    10.2560 hn         1 DID       0.378400
     34 H71          0.7030     1.0140     3.3110 h1         1 DID       0.035700
     35 H72          0.9280    -0.7570     3.3270 h1         1 DID       0.035700
     36 H81         -1.0950    -1.0170     1.8750 hc         1 DID       0.056700
     37 H82         -1.3170     0.7350     1.8600 hc         1 DID       0.056700
     38 H101         0.9130     1.0070     0.7320 hc         1 DID       0.042200
     39 H102         1.1350    -0.7430     0.7470 hc         1 DID       0.042200
     40 H111        -0.9030    -1.0140    -0.6990 hc         1 DID       0.042200
     41 H112        -1.1250     0.7360    -0.7140 hc         1 DID       0.042200
     42 H8'1         1.1050     1.0100    -1.8410 hc         1 DID       0.056700
     43 H8'2         1.3270    -0.7410    -1.8260 hc         1 DID       0.056700
     44 H7'1        -0.6930    -1.0200    -3.2780 h1         1 DID       0.035700
     45 H7'2        -0.9180     0.7510    -3.2940 h1         1 DID       0.035700
     46 H9          -1.6920    -0.2790    -5.3320 ha         1 DID       0.124000
     47 H4          -2.2040    -0.3770    -7.7210 ha         1 DID       0.123500
     48 H13          2.0000     0.1730    -8.6460 ha         1 DID       0.123500
     49 H12          2.5030     0.2550    -6.2260 ha         1 DID       0.124000
     50 H1'1        -1.7370     0.5560   -11.2020 hn         1 DID       0.462500
     51 H1'2        -2.2330     0.6910    -9.5730 hn         1 DID       0.462500
     52 H1          -0.0420    -0.6200   -11.6020 hn         1 DID       0.378400
@<TRIPOS>BOND
     1     1     2 ar  
     2     1     6 ar  
     3     1     7 1   
     4     2     3 ar  
     5     2    27 1   
     6     3     4 ar  
     7     3    28 1   
     8     4     5 ar  
     9     4    10 1   
    10     5     6 ar  
    11     5    29 1   
    12     6    30 1   
    13     7     8 1   
    14     7     9 2   
    15     8    31 1   
    16     8    32 1   
    17     9    33 1   
    18    10    11 1   
    19    11    12 1   
    20    11    34 1   
    21    11    35 1   
    22    12    13 1   
    23    12    36 1   
    24    12    37 1   
    25    13    14 1   
    26    13    38 1   
    27    13    39 1   
    28    14    15 1   
    29    14    40 1   
    30    14    41 1   
    31    15    16 1   
    32    15    42 1   
    33    15    43 1   
    34    16    17 1   
    35    16    44 1   
    36    16    45 1   
    37    17    18 1   
    38    18    19 ar  
    39    18    23 ar  
    40    19    20 ar  
    41    19    46 1   
    42    20    21 ar  
    43    20    47 1   
    44    21    22 ar  
    45    21    24 1   
    46    22    23 ar  
    47    22    48 1   
    48    23    49 1   
    49    24    25 1   
    50    24    26 2   
    51    25    50 1   
    52    25    51 1   
    53    26    52 1   
@<TRIPOS>SUBSTRUCTURE
     1 DID         1 TEMP              0 ****  ****    0 ROOT
