@<TRIPOS>MOLECULE
DID
   52    53     1     0     0
SMALL
bcc


@<TRIPOS>ATOM
      1 C4           0.1470     0.0380     8.2300 ca         1 DID      -0.212400
      2 C5          -1.1780    -0.0930     7.8090 ca         1 DID      -0.062000
      3 C6          -1.5060    -0.0750     6.4690 ca         1 DID      -0.200750
      4 C1          -0.5100     0.0850     5.5010 ca         1 DID       0.162600
      5 C2           0.8150     0.2270     5.9070 ca         1 DID      -0.200750
      6 C3           1.1300     0.1950     7.2580 ca         1 DID      -0.062000
      7 C9           0.4790     0.0210     9.6790 ce         1 DID       0.666300
      8 N1           1.7120    -0.4810     9.9800 nv         1 DID      -0.943300
      9 N2          -0.2760     0.4690    10.6080 n2         1 DID      -0.839600
     10 O1          -0.9170     0.0860     4.2220 os         1 DID      -0.323900
     11 C7           0.0540     0.1640     3.1860 c3         1 DID       0.142400
     12 C8          -0.6580     0.0410     1.8560 c3         1 DID      -0.082400
     13 C10          0.3270     0.0990     0.6940 c3         1 DID      -0.073400
     14 C11         -0.3600    -0.0250    -0.6600 c3         1 DID      -0.073400
     15 C20          0.6260     0.0370    -1.8210 c3         1 DID      -0.082400
     16 C19         -0.0770    -0.1070    -3.1530 c3         1 DID       0.142400
     17 O2           0.8970    -0.0170    -4.1840 os         1 DID      -0.323900
     18 C15          0.5000    -0.0570    -5.4650 ca         1 DID       0.162600
     19 C14         -0.8160    -0.2460    -5.8780 ca         1 DID      -0.200750
     20 C13         -1.1190    -0.2610    -7.2340 ca         1 DID      -0.062000
     21 C12         -0.1350    -0.0940    -8.2010 ca         1 DID      -0.212400
     22 C17          1.1830     0.0830    -7.7720 ca         1 DID      -0.062000
     23 C16          1.5000     0.1060    -6.4300 ca         1 DID      -0.200750
     24 C18         -0.4380    -0.1170    -9.6560 ce         1 DID       0.666300
     25 N3          -1.7400     0.1360    -9.9870 nv         1 DID      -0.943300
     26 N4           0.4990    -0.4090   -10.4760 n2         1 DID      -0.839600
     27 H5          -1.9680    -0.2360     8.5350 ha         1 DID       0.141500
     28 H6          -2.5370    -0.1940     6.1580 ha         1 DID       0.142000
     29 H2           1.6150     0.3640     5.1920 ha         1 DID       0.142000
     30 H3           2.1660     0.3160     7.5470 ha         1 DID       0.141500
     31 HN11         1.9070    -0.6110    10.9600 hn         1 DID       0.407300
     32 HN12         2.0890    -1.2020     9.3870 hn         1 DID       0.407300
     33 HN2         -1.1020     0.9100    10.2210 hn         1 DID       0.378400
     34 H71          0.5930     1.1170     3.2410 h1         1 DID       0.035700
     35 H72          0.7910    -0.6390     3.2980 h1         1 DID       0.035700
     36 H81         -1.2090    -0.9030     1.8230 hc         1 DID       0.056700
     37 H82         -1.3920     0.8460     1.7560 hc         1 DID       0.056700
     38 H101         0.8860     1.0400     0.7310 hc         1 DID       0.042200
     39 H102         1.0660    -0.7010     0.8000 hc         1 DID       0.042200
     40 H111        -0.9160    -0.9680    -0.6990 hc         1 DID       0.042200
     41 H112        -1.1010     0.7730    -0.7670 hc         1 DID       0.042200
     42 H8'1         1.1650     0.9890    -1.7930 hc         1 DID       0.056700
     43 H8'2         1.3710    -0.7570    -1.7130 hc         1 DID       0.056700
     44 H7'1        -0.5970    -1.0710    -3.2030 h1         1 DID       0.035700
     45 H7'2        -0.8300     0.6800    -3.2750 h1         1 DID       0.035700
     46 H9          -1.6180    -0.3880    -5.1670 ha         1 DID       0.142000
     47 H4          -2.1500    -0.4290    -7.5190 ha         1 DID       0.141500
     48 H13          1.9650     0.2130    -8.5070 ha         1 DID       0.141500
     49 H12          2.5250     0.2570    -6.1140 ha         1 DID       0.142000
     50 H1'1        -1.9470     0.2680   -10.9640 hn         1 DID       0.407300
     51 H1'2        -2.2790     0.7320    -9.3810 hn         1 DID       0.407300
     52 H1           0.1720    -0.3530   -11.4380 hn         1 DID       0.378400
@<TRIPOS>BOND
     1     1     2 ar  
     2     1     6 ar  
     3     1     7 1   
     4     2     3 ar  
     5     2    27 1   
     6     3     4 ar  
     7     3    28 1   
     8     4     5 ar  
     9     4    10 1   
    10     5     6 ar  
    11     5    29 1   
    12     6    30 1   
    13     7     8 1   
    14     7     9 2   
    15     8    31 1   
    16     8    32 1   
    17     9    33 1   
    18    10    11 1   
    19    11    12 1   
    20    11    34 1   
    21    11    35 1   
    22    12    13 1   
    23    12    36 1   
    24    12    37 1   
    25    13    14 1   
    26    13    38 1   
    27    13    39 1   
    28    14    15 1   
    29    14    40 1   
    30    14    41 1   
    31    15    16 1   
    32    15    42 1   
    33    15    43 1   
    34    16    17 1   
    35    16    44 1   
    36    16    45 1   
    37    17    18 1   
    38    18    19 ar  
    39    18    23 ar  
    40    19    20 ar  
    41    19    46 1   
    42    20    21 ar  
    43    20    47 1   
    44    21    22 ar  
    45    21    24 1   
    46    22    23 ar  
    47    22    48 1   
    48    23    49 1   
    49    24    25 1   
    50    24    26 2   
    51    25    50 1   
    52    25    51 1   
    53    26    52 1   
@<TRIPOS>SUBSTRUCTURE
     1 DID         1 TEMP              0 ****  ****    0 ROOT
