@<TRIPOS>MOLECULE
DIE
   25    25     1     0     0
SMALL
abcg2


@<TRIPOS>ATOM
      1 C10          3.1930    -0.9960    -0.5720 c3         1 DIE      -0.088600
      2 C9           2.4930    -0.4550     0.6740 c3         1 DIE      -0.025100
      3 C6           1.2170     0.2750     0.3510 ca         1 DIE      -0.138300
      4 C5           1.1870     1.6640     0.3060 ca         1 DIE      -0.074500
      5 C4           0.0310     2.3530    -0.0320 ca         1 DIE      -0.145000
      6 C3          -1.1210     1.6400    -0.3250 ca         1 DIE      -0.074500
      7 C2          -1.1410     0.2480    -0.2850 ca         1 DIE      -0.138300
      8 C7          -2.4210    -0.5000    -0.5520 c3         1 DIE      -0.025100
      9 C8          -3.1070    -0.9760     0.7300 c3         1 DIE      -0.088600
     10 C1           0.0410    -0.4220     0.0520 ca         1 DIE       0.147100
     11 O1           0.1070    -1.7740     0.1150 oh         1 DIE      -0.542100
     12 H10          4.1190    -1.5080    -0.3060 hc         1 DIE       0.035200
     13 H10A         2.5620    -1.7040    -1.1080 hc         1 DIE       0.035200
     14 H10B         3.4450    -0.1850    -1.2580 hc         1 DIE       0.035200
     15 H9           2.3010    -1.2740     1.3710 hc         1 DIE       0.044700
     16 H9A          3.1660     0.2320     1.1910 hc         1 DIE       0.044700
     17 H5           2.0920     2.2120     0.5410 ha         1 DIE       0.110500
     18 H4           0.0280     3.4350    -0.0660 ha         1 DIE       0.115000
     19 H3          -2.0300     2.1650    -0.5910 ha         1 DIE       0.110500
     20 H7          -3.1020     0.1550    -1.0980 hc         1 DIE       0.044700
     21 H7A         -2.2520    -1.3500    -1.2220 hc         1 DIE       0.044700
     22 H8          -4.0320    -1.5060     0.5020 hc         1 DIE       0.035200
     23 H8A         -2.4730    -1.6490     1.3080 hc         1 DIE       0.035200
     24 H8B         -3.3540    -0.1280     1.3700 hc         1 DIE       0.035200
     25 HO1         -0.7030    -2.1770    -0.2140 ho         1 DIE       0.465000
@<TRIPOS>BOND
     1     1     2 1   
     2     1    12 1   
     3     1    13 1   
     4     1    14 1   
     5     2     3 1   
     6     2    15 1   
     7     2    16 1   
     8     3     4 ar  
     9     3    10 ar  
    10     4     5 ar  
    11     4    17 1   
    12     5     6 ar  
    13     5    18 1   
    14     6     7 ar  
    15     6    19 1   
    16     7     8 1   
    17     7    10 ar  
    18     8     9 1   
    19     8    20 1   
    20     8    21 1   
    21     9    22 1   
    22     9    23 1   
    23     9    24 1   
    24    10    11 1   
    25    11    25 1   
@<TRIPOS>SUBSTRUCTURE
     1 DIE         1 TEMP              0 ****  ****    0 ROOT
