@<TRIPOS>MOLECULE
DIE
   25    25     1     0     0
SMALL
No Charge or Current Charge


@<TRIPOS>ATOM
      1 C10          3.3290    -0.9020    -0.5980 c3         1 DIE      -0.088600
      2 C9           2.5460    -0.4900     0.6630 c3         1 DIE      -0.025100
      3 C6           1.2370     0.2250     0.3250 ca         1 DIE      -0.138300
      4 C5           1.2240     1.6320     0.2710 ca         1 DIE      -0.074500
      5 C4           0.0410     2.3190    -0.0370 ca         1 DIE      -0.145000
      6 C3          -1.1400     1.6090    -0.2980 ca         1 DIE      -0.074500
      7 C2          -1.1510     0.2010    -0.2560 ca         1 DIE      -0.138300
      8 C7          -2.4620    -0.5320    -0.5500 c3         1 DIE      -0.025100
      9 C8          -3.2200    -0.9180     0.7350 c3         1 DIE      -0.088600
     10 C1           0.0450    -0.4910     0.0590 ca         1 DIE       0.147100
     11 O1           0.0500    -1.8580     0.1090 oh         1 DIE      -0.542100
     12 H10          4.2650    -1.4020    -0.3210 hc         1 DIE       0.035200
     13 H10A         2.7390    -1.5920    -1.2130 hc         1 DIE       0.035200
     14 H10B         3.5750    -0.0220    -1.2040 hc         1 DIE       0.035200
     15 H9           2.3580    -1.3800     1.2760 hc         1 DIE       0.044700
     16 H9A          3.1850     0.1600     1.2740 hc         1 DIE       0.044700
     17 H5           2.1340     2.1950     0.4690 ha         1 DIE       0.110500
     18 H4           0.0400     3.4060    -0.0750 ha         1 DIE       0.115000
     19 H3          -2.0500     2.1560    -0.5340 ha         1 DIE       0.110500
     20 H7          -3.1180     0.1010    -1.1610 hc         1 DIE       0.044700
     21 H7A         -2.2840    -1.4310    -1.1530 hc         1 DIE       0.044700
     22 H8          -4.1570    -1.4310     0.4870 hc         1 DIE       0.035200
     23 H8A         -2.6170    -1.5870     1.3620 hc         1 DIE       0.035200
     24 H8B         -3.4630    -0.0240     1.3210 hc         1 DIE       0.035200
     25 HO1         -0.8600    -2.1700    -0.0690 ho         1 DIE       0.465000
@<TRIPOS>BOND
     1     1     2 1   
     2     1    12 1   
     3     1    13 1   
     4     1    14 1   
     5     2     3 1   
     6     2    15 1   
     7     2    16 1   
     8     3     4 ar  
     9     3    10 ar  
    10     4     5 ar  
    11     4    17 1   
    12     5     6 ar  
    13     5    18 1   
    14     6     7 ar  
    15     6    19 1   
    16     7     8 1   
    17     7    10 ar  
    18     8     9 1   
    19     8    20 1   
    20     8    21 1   
    21     9    22 1   
    22     9    23 1   
    23     9    24 1   
    24    10    11 1   
    25    11    25 1   
@<TRIPOS>SUBSTRUCTURE
     1 DIE         1 TEMP              0 ****  ****    0 ROOT
