@<TRIPOS>MOLECULE
DIF
   29    30     1     0     0
SMALL
No Charge or Current Charge


@<TRIPOS>ATOM
      1 C1           0.1860     0.4580    -3.7140 ca         1 DIF      -0.090000
      2 C2           0.2960     0.6600    -2.3260 ca         1 DIF       0.067500
      3 Cl2          0.9450     2.2150    -1.7790 cl         1 DIF      -0.185000
      4 C3          -0.0590    -0.3770    -1.4170 ca         1 DIF       0.354000
      5 C4          -0.4990    -1.6180    -1.9490 ca         1 DIF       0.067500
      6 Cl4         -0.9560    -2.9590    -0.8910 cl         1 DIF      -0.185000
      7 C5          -0.6050    -1.8060    -3.3380 ca         1 DIF      -0.090000
      8 C6          -0.2680    -0.7690    -4.2200 ca         1 DIF      -0.152000
      9 N1           0.0380    -0.2100    -0.0190 nu         1 DIF      -0.996000
     10 C7           0.1730     0.9240     2.1510 ca         1 DIF      -0.052300
     11 C8          -0.3890     0.7960     0.8520 ca         1 DIF       0.317000
     12 C9          -1.4210     1.6660     0.4510 ca         1 DIF      -0.172000
     13 C10         -1.8920     2.6660     1.3160 ca         1 DIF      -0.111000
     14 C11         -1.3350     2.7980     2.5960 ca         1 DIF      -0.157000
     15 C12         -0.3100     1.9330     3.0120 ca         1 DIF      -0.099000
     16 C14          0.8180    -1.4210     2.8220 c          1 DIF       0.725000
     17 O1           0.8160    -2.1470     1.8390 o          1 DIF      -0.721500
     18 O2           0.3150    -1.7250     3.8930 o          1 DIF      -0.721500
     19 H1           0.4640     1.2560    -4.3990 ha         1 DIF       0.115000
     20 H5          -0.9530    -2.7590    -3.7300 ha         1 DIF       0.115000
     21 H6          -0.3490    -0.9190    -5.2940 ha         1 DIF       0.104000
     22 HN1          0.3290    -1.0650     0.4870 hn         1 DIF       0.580000
     23 H9          -1.8680     1.5630    -0.5330 ha         1 DIF       0.101000
     24 H10         -2.6890     3.3330     0.9960 ha         1 DIF       0.088000
     25 H11         -1.6990     3.5720     3.2680 ha         1 DIF       0.091000
     26 H12          0.1110     2.0520     4.0070 ha         1 DIF       0.106000
     27 H131         1.6720     0.4080     3.5950 hc         1 DIF       0.039200
     28 H132         2.0910     0.0460     1.8580 hc         1 DIF       0.039200
     29 C13          1.3170     0.0170     2.6340 c3         1 DIF      -0.178100
@<TRIPOS>BOND
     1     1     2 ar  
     2     1     8 ar  
     3     1    19 1   
     4     2     3 1   
     5     2     4 ar  
     6     4     5 ar  
     7     4     9 1   
     8     5     6 1   
     9     5     7 ar  
    10     7     8 ar  
    11     7    20 1   
    12     8    21 1   
    13     9    11 1   
    14     9    22 1   
    15    10    11 ar  
    16    10    15 ar  
    17    10    29 1   
    18    11    12 ar  
    19    12    13 ar  
    20    12    23 1   
    21    13    14 ar  
    22    13    24 1   
    23    14    15 ar  
    24    14    25 1   
    25    15    26 1   
    26    16    17 1   
    27    16    18 1   
    28    16    29 1   
    29    27    29 1   
    30    28    29 1   
@<TRIPOS>SUBSTRUCTURE
     1 DIF         1 TEMP              0 ****  ****    0 ROOT
