@<TRIPOS>MOLECULE
DIF
   29    30     1     0     0
SMALL
bcc


@<TRIPOS>ATOM
      1 C1           0.2820     0.5080    -3.5980 ca         1 DIF      -0.108000
      2 C2           0.4370     0.5980    -2.2250 ca         1 DIF      -0.024100
      3 CL2          1.2680     1.9680    -1.5770 cl         1 DIF      -0.093400
      4 C3          -0.0200    -0.3990    -1.3490 ca         1 DIF       0.215600
      5 C4          -0.6140    -1.5170    -1.9510 ca         1 DIF      -0.024100
      6 CL4         -1.2080    -2.7900    -0.9390 cl         1 DIF      -0.093400
      7 C5          -0.7480    -1.6410    -3.3240 ca         1 DIF      -0.108000
      8 C6          -0.3090    -0.6180    -4.1490 ca         1 DIF      -0.170000
      9 N1           0.1550    -0.3080     0.0150 nu         1 DIF      -0.664000
     10 C7           0.1470     0.9020     2.0890 ca         1 DIF      -0.052300
     11 C8          -0.3740     0.7170     0.7960 ca         1 DIF       0.178600
     12 C9          -1.4070     1.5400     0.3450 ca         1 DIF      -0.190000
     13 C10         -1.9340     2.5290     1.1610 ca         1 DIF      -0.129000
     14 C11         -1.4450     2.7040     2.4470 ca         1 DIF      -0.175000
     15 C12         -0.4130     1.8880     2.8940 ca         1 DIF      -0.117000
     16 C14          0.9120    -1.3580     2.9890 c          1 DIF       0.935600
     17 O1           0.4470    -2.0780     2.0680 o          1 DIF      -0.826800
     18 O2           1.0810    -1.7030     4.1670 o          1 DIF      -0.826800
     19 H1           0.6450     1.3040    -4.2330 ha         1 DIF       0.133000
     20 H5          -1.2080    -2.5260    -3.7430 ha         1 DIF       0.133000
     21 H6          -0.4210    -0.7010    -5.2210 ha         1 DIF       0.122000
     22 HN1          0.2990    -1.1710     0.5630 hn         1 DIF       0.524800
     23 H9          -1.8150     1.3950    -0.6480 ha         1 DIF       0.119000
     24 H10         -2.7360     3.1540     0.7890 ha         1 DIF       0.106000
     25 H11         -1.8560     3.4680     3.0940 ha         1 DIF       0.109000
     26 H12         -0.0160     2.0330     3.8920 ha         1 DIF       0.124000
     27 H131         1.7670     0.5900     3.4360 hc         1 DIF       0.039200
     28 H132         2.0580     0.0200     1.7950 hc         1 DIF       0.039200
     29 C13          1.3050     0.0810     2.5890 c3         1 DIF      -0.178100
@<TRIPOS>BOND
     1     1     2 ar  
     2     1     8 ar  
     3     1    19 1   
     4     2     3 1   
     5     2     4 ar  
     6     4     5 ar  
     7     4     9 1   
     8     5     6 1   
     9     5     7 ar  
    10     7     8 ar  
    11     7    20 1   
    12     8    21 1   
    13     9    11 1   
    14     9    22 1   
    15    10    11 ar  
    16    10    15 ar  
    17    10    29 1   
    18    11    12 ar  
    19    12    13 ar  
    20    12    23 1   
    21    13    14 ar  
    22    13    24 1   
    23    14    15 ar  
    24    14    25 1   
    25    15    26 1   
    26    16    17 1   
    27    16    18 1   
    28    16    29 1   
    29    27    29 1   
    30    28    29 1   
@<TRIPOS>SUBSTRUCTURE
     1 DIF         1 TEMP              0 ****  ****    0 ROOT
