@<TRIPOS>MOLECULE
DIG
   24    24     1     0     0
SMALL
No Charge or Current Charge


@<TRIPOS>ATOM
      1 C1           0.4510     0.4020     2.3590 c3         1 DIG       0.173600
      2 O1           1.7800     0.2100     2.8850 oh         1 DIG      -0.667500
      3 C2           0.1300    -0.6130     1.2110 c5         1 DIG       0.171500
      4 C3          -1.3340    -0.5110     0.6280 c5         1 DIG       0.130300
      5 O3          -2.3130     0.0280     1.5310 oh         1 DIG      -0.646000
      6 C4          -1.0990     0.3880    -0.6230 c5         1 DIG       0.130300
      7 O4          -2.2130     0.3890    -1.5300 oh         1 DIG      -0.646000
      8 C5           0.1660    -0.3330    -1.1770 c5         1 DIG       0.171500
      9 C6           0.8410     0.3890    -2.3820 c3         1 DIG       0.173600
     10 O6           1.9920    -0.3400    -2.8540 oh         1 DIG      -0.667500
     11 N5           1.0410    -0.4200     0.0290 n7         1 DIG      -0.850400
     12 H11         -0.2840     0.2690     3.1650 h1         1 DIG       0.032450
     13 H12          0.3370     1.4230     1.9720 h1         1 DIG       0.032450
     14 HO1          1.9410     0.9390     3.5240 ho         1 DIG       0.445000
     15 H2           0.2700    -1.6220     1.6240 h1         1 DIG       0.047200
     16 H3          -1.6540    -1.5110     0.3030 h1         1 DIG       0.043700
     17 HO3         -3.1960    -0.1810     1.1520 ho         1 DIG       0.439500
     18 H4          -0.8520     1.4180    -0.3260 h1         1 DIG       0.043700
     19 HO4         -2.8700     1.0280    -1.1750 ho         1 DIG       0.439500
     20 H5          -0.1100    -1.3440    -1.5100 h1         1 DIG       0.047200
     21 H61          0.1030     0.4900    -3.1900 h1         1 DIG       0.032450
     22 H62          1.1320     1.4020    -2.0710 h1         1 DIG       0.032450
     23 HO6          2.4060     0.2060    -3.5580 ho         1 DIG       0.445000
     24 HN5          1.7060    -1.1990    -0.0650 hn         1 DIG       0.446000
@<TRIPOS>BOND
     1     1     2 1   
     2     1     3 1   
     3     1    12 1   
     4     1    13 1   
     5     2    14 1   
     6     3     4 1   
     7     3    11 1   
     8     3    15 1   
     9     4     5 1   
    10     4     6 1   
    11     4    16 1   
    12     5    17 1   
    13     6     7 1   
    14     6     8 1   
    15     6    18 1   
    16     7    19 1   
    17     8     9 1   
    18     8    11 1   
    19     8    20 1   
    20     9    10 1   
    21     9    21 1   
    22     9    22 1   
    23    10    23 1   
    24    11    24 1   
@<TRIPOS>SUBSTRUCTURE
     1 DIG         1 TEMP              0 ****  ****    0 ROOT
