@<TRIPOS>MOLECULE
DIG
   24    24     1     0     0
SMALL
bcc


@<TRIPOS>ATOM
      1 C1           0.4680     0.0170     2.5130 c3         1 DIG       0.150400
      2 O1           1.7220    -0.5710     2.7940 oh         1 DIG      -0.605300
      3 C2           0.0470    -0.4340     1.1320 c5         1 DIG       0.171500
      4 C3          -1.3530     0.0020     0.6950 c5         1 DIG       0.107100
      5 O3          -1.6440     1.2700     1.2370 oh         1 DIG      -0.583800
      6 C4          -1.2520     0.0250    -0.8540 c5         1 DIG       0.107100
      7 O4          -2.0540    -0.9210    -1.5140 oh         1 DIG      -0.583800
      8 C5           0.2220    -0.2700    -1.1560 c5         1 DIG       0.171500
      9 C6           0.7360     0.4870    -2.3590 c3         1 DIG       0.150400
     10 O6           2.0750     0.1120    -2.5930 oh         1 DIG      -0.605300
     11 N5           0.8890     0.1080     0.0760 n7         1 DIG      -0.795200
     12 H11         -0.2930    -0.2940     3.2410 h1         1 DIG       0.032450
     13 H12          0.5260     1.1100     2.5450 h1         1 DIG       0.032450
     14 HO1          2.0460    -0.2040     3.6220 ho         1 DIG       0.406000
     15 H2           0.0490    -1.5380     1.1240 h1         1 DIG       0.047200
     16 H3          -2.0960    -0.7410     1.0100 h1         1 DIG       0.043700
     17 HO3         -2.5450     1.5030     0.9950 ho         1 DIG       0.400500
     18 H4          -1.4920     1.0460    -1.1880 h1         1 DIG       0.043700
     19 HO4         -2.9720    -0.6420    -1.4480 ho         1 DIG       0.400500
     20 H5           0.3070    -1.3520    -1.3540 h1         1 DIG       0.047200
     21 H61          0.0960     0.2580    -3.2210 h1         1 DIG       0.032450
     22 H62          0.6460     1.5630    -2.1610 h1         1 DIG       0.032450
     23 HO6          2.4100     0.6290    -3.3310 ho         1 DIG       0.406000
     24 HN5          1.8310    -0.2580     0.1190 hn         1 DIG       0.390800
@<TRIPOS>BOND
     1     1     2 1   
     2     1     3 1   
     3     1    12 1   
     4     1    13 1   
     5     2    14 1   
     6     3     4 1   
     7     3    11 1   
     8     3    15 1   
     9     4     5 1   
    10     4     6 1   
    11     4    16 1   
    12     5    17 1   
    13     6     7 1   
    14     6     8 1   
    15     6    18 1   
    16     7    19 1   
    17     8     9 1   
    18     8    11 1   
    19     8    20 1   
    20     9    10 1   
    21     9    21 1   
    22     9    22 1   
    23    10    23 1   
    24    11    24 1   
@<TRIPOS>SUBSTRUCTURE
     1 DIG         1 TEMP              0 ****  ****    0 ROOT
