@<TRIPOS>MOLECULE
DIH
   36    38     1     0     0
SMALL
abcg2


@<TRIPOS>ATOM
      1 O5          55.2770    13.4280    44.0690 oh         1 DIH      -0.667000
      2 C5          54.8820    14.7750    44.3280 c3         1 DIH       0.166600
      3 C4          56.1290    15.5600    44.7050 c5         1 DIH      -0.120700
      4 C6          57.1620    15.5770    43.5630 c5         1 DIH       0.112600
      5 C3          55.8130    17.0460    44.9730 c5         1 DIH       0.145300
      6 O3          56.7370    17.6270    45.8900 oh         1 DIH      -0.667000
      7 C2          56.0600    17.7060    43.6350 c5         1 DIH       0.109600
      8 N1          57.3180    17.0300    43.1710 nx         1 DIH      -0.685000
      9 C10         57.7000    17.2710    41.7190 c3         1 DIH       0.220900
     10 C9          56.6710    16.8220    40.7520 cc         1 DIH      -0.253300
     11 C8          56.6060    15.5900    40.1190 cd         1 DIH      -0.095000
     12 N7          55.5210    15.5540    39.3010 na         1 DIH      -0.051000
     13 C7          54.8640    16.7530    39.3740 cd         1 DIH      -0.277600
     14 C12         53.6780    17.1860    38.7120 c          1 DIH       0.592600
     15 O6          52.9740    16.5620    37.9200 o          1 DIH      -0.506000
     16 N2          53.3760    18.4990    39.0900 ns         1 DIH      -0.418400
     17 C13         54.1010    19.2560    39.9640 cd         1 DIH       0.520800
     18 N3          55.1740    18.8540    40.5700 nc         1 DIH      -0.632100
     19 C11         55.5580    17.5730    40.2690 cc         1 DIH       0.154400
     20 H1          54.5290    12.9580    43.6820 ho         1 DIH       0.468000
     21 H2          54.4120    15.2120    43.4400 h1         1 DIH       0.040700
     22 H3          54.1630    14.8180    45.1530 h1         1 DIH       0.040700
     23 H4          56.5590    15.1160    45.6030 hc         1 DIH       0.105700
     24 H5          56.7980    15.0380    42.6930 hx         1 DIH       0.102200
     25 H6          58.1420    15.1980    43.8360 hx         1 DIH       0.102200
     26 H7          54.7840    17.1950    45.3080 h1         1 DIH       0.096700
     27 H8          56.6990    17.1390    46.7230 ho         1 DIH       0.479000
     28 H9          56.2190    18.7800    43.6820 hx         1 DIH       0.118700
     29 H10         55.2700    17.4710    42.9280 hx         1 DIH       0.118700
     30 H11         58.0800    17.4160    43.7310 hn         1 DIH       0.504000
     31 H12         58.6440    16.7480    41.5770 hx         1 DIH       0.099200
     32 H13         57.8760    18.3420    41.6410 hx         1 DIH       0.099200
     33 H14         57.2710    14.7460    40.1940 h4         1 DIH       0.167000
     34 H15         55.2550    14.7760    38.7170 hn         1 DIH       0.390000
     35 H16         52.5490    18.9060    38.6710 hn         1 DIH       0.351500
     36 H17         53.7200    20.2550    40.1330 h5         1 DIH       0.068800
@<TRIPOS>BOND
     1     1     2 1   
     2     1    20 1   
     3     2     3 1   
     4     2    21 1   
     5     2    22 1   
     6     3     4 1   
     7     3     5 1   
     8     3    23 1   
     9     4     8 1   
    10     4    24 1   
    11     4    25 1   
    12     5     6 1   
    13     5     7 1   
    14     5    26 1   
    15     6    27 1   
    16     7     8 1   
    17     7    28 1   
    18     7    29 1   
    19     8     9 1   
    20     8    30 1   
    21     9    10 1   
    22     9    31 1   
    23     9    32 1   
    24    10    11 2   
    25    10    19 1   
    26    11    12 1   
    27    11    33 1   
    28    12    13 1   
    29    12    34 1   
    30    13    14 1   
    31    13    19 2   
    32    14    15 2   
    33    14    16 1   
    34    16    17 1   
    35    16    35 1   
    36    17    18 2   
    37    17    36 1   
    38    18    19 1   
@<TRIPOS>SUBSTRUCTURE
     1 DIH         1 TEMP              0 ****  ****    0 ROOT
