@<TRIPOS>MOLECULE
DIH
   36    38     1     0     0
SMALL
No Charge or Current Charge


@<TRIPOS>ATOM
      1 O5          55.1500    13.6190    43.4490 oh         1 DIH      -0.667000
      2 C5          54.8980    14.9920    43.7730 c3         1 DIH       0.166600
      3 C4          56.0960    15.5690    44.5660 c5         1 DIH      -0.120700
      4 C6          57.3900    15.6650    43.7030 c5         1 DIH       0.112600
      5 C3          55.8940    17.0370    45.0460 c5         1 DIH       0.145300
      6 O3          56.8580    17.4180    46.0370 oh         1 DIH      -0.667000
      7 C2          56.1210    17.7930    43.7130 c5         1 DIH       0.109600
      8 N1          57.4040    17.1220    43.1950 nx         1 DIH      -0.685000
      9 C10         57.6940    17.3160    41.7150 c3         1 DIH       0.220900
     10 C9          56.6430    16.7180    40.8250 cc         1 DIH      -0.253300
     11 C8          56.5530    15.4290    40.3540 cd         1 DIH      -0.095000
     12 N7          55.3860    15.3600    39.5760 na         1 DIH      -0.051000
     13 C7          54.7650    16.6170    39.5740 cd         1 DIH      -0.277600
     14 C12         53.5390    17.0820    38.9270 c          1 DIH       0.592600
     15 O6          52.8050    16.3960    38.2340 o          1 DIH      -0.506000
     16 N2          53.3070    18.3940    39.1950 ns         1 DIH      -0.418400
     17 C13         54.1210    19.1830    39.9720 cd         1 DIH       0.520800
     18 N3          55.2420    18.7530    40.5640 nc         1 DIH      -0.632100
     19 C11         55.5380    17.4320    40.3340 cc         1 DIH       0.154400
     20 H1          54.3520    13.2820    42.9830 ho         1 DIH       0.468000
     21 H2          54.7400    15.5780    42.8570 h1         1 DIH       0.040700
     22 H3          53.9910    15.0770    44.3880 h1         1 DIH       0.040700
     23 H4          56.2480    14.8960    45.4170 hc         1 DIH       0.105700
     24 H5          57.3820    14.9680    42.8610 hx         1 DIH       0.102200
     25 H6          58.2970    15.4780    44.2850 hx         1 DIH       0.102200
     26 H7          54.8720    17.2060    45.4200 h1         1 DIH       0.096700
     27 H8          56.6130    16.9600    46.8740 ho         1 DIH       0.479000
     28 H9          56.2550    18.8720    43.8300 hx         1 DIH       0.118700
     29 H10         55.3130    17.6250    42.9970 hx         1 DIH       0.118700
     30 H11         58.1770    17.5870    43.7230 hn         1 DIH       0.504000
     31 H12         58.6650    16.8680    41.4870 hx         1 DIH       0.099200
     32 H13         57.7660    18.3890    41.5150 hx         1 DIH       0.099200
     33 H14         57.2050    14.5750    40.5080 h4         1 DIH       0.167000
     34 H15         55.0490    14.5320    39.0910 hn         1 DIH       0.390000
     35 H16         52.4770    18.7890    38.7810 hn         1 DIH       0.351500
     36 H17         53.7660    20.2030    40.0670 h5         1 DIH       0.068800
@<TRIPOS>BOND
     1     1     2 1   
     2     1    20 1   
     3     2     3 1   
     4     2    21 1   
     5     2    22 1   
     6     3     4 1   
     7     3     5 1   
     8     3    23 1   
     9     4     8 1   
    10     4    24 1   
    11     4    25 1   
    12     5     6 1   
    13     5     7 1   
    14     5    26 1   
    15     6    27 1   
    16     7     8 1   
    17     7    28 1   
    18     7    29 1   
    19     8     9 1   
    20     8    30 1   
    21     9    10 1   
    22     9    31 1   
    23     9    32 1   
    24    10    11 2   
    25    10    19 1   
    26    11    12 1   
    27    11    33 1   
    28    12    13 1   
    29    12    34 1   
    30    13    14 1   
    31    13    19 2   
    32    14    15 2   
    33    14    16 1   
    34    16    17 1   
    35    16    35 1   
    36    17    18 2   
    37    17    36 1   
    38    18    19 1   
@<TRIPOS>SUBSTRUCTURE
     1 DIH         1 TEMP              0 ****  ****    0 ROOT
