@<TRIPOS>MOLECULE
DII
   28    27     1     0     0
SMALL
abcg2


@<TRIPOS>ATOM
      1 P1          -1.0710    -0.3110    -0.1420 p5         1 DII       1.351800
      2 O1          -1.0340    -1.7870    -0.3170 o          1 DII      -0.584000
      3 O2          -0.1060     0.4890    -1.1500 os         1 DII      -0.618400
      4 C1           0.5490    -0.1320    -2.2780 c3         1 DII       0.236300
      5 C2           0.6290     0.9140    -3.3710 c3         1 DII      -0.107850
      6 C3           1.9110    -0.6420    -1.8520 c3         1 DII      -0.107850
      7 O3          -0.6290     0.2240     1.3020 os         1 DII      -0.618400
      8 C4           0.6040    -0.2210     1.9150 c3         1 DII       0.236300
      9 C5           1.5870     0.9320     1.9310 c3         1 DII      -0.107850
     10 C6           0.2710    -0.7320     3.3010 c3         1 DII      -0.107850
     11 C7          -2.6790     0.4570    -0.3320 c3         1 DII      -0.465100
     12 H1          -0.0580    -0.9710    -2.6280 h1         1 DII       0.045200
     13 H21          1.1080     0.4910    -4.2530 hc         1 DII       0.046283
     14 H22         -0.3630     1.2590    -3.6620 hc         1 DII       0.046283
     15 H23          1.2170     1.7760    -3.0510 hc         1 DII       0.046283
     16 H31          2.5300     0.1720    -1.4700 hc         1 DII       0.046283
     17 H32          1.8250    -1.4040    -1.0780 hc         1 DII       0.046283
     18 H33          2.4280    -1.0880    -2.7020 hc         1 DII       0.046283
     19 H4           1.0260    -1.0450     1.3290 h1         1 DII       0.045200
     20 H51          2.5200     0.6150     2.3970 hc         1 DII       0.046283
     21 H52          1.8170     1.2740     0.9230 hc         1 DII       0.046283
     22 H53          1.1960     1.7750     2.5020 hc         1 DII       0.046283
     23 H61         -0.1560     0.0600     3.9190 hc         1 DII       0.046283
     24 H62         -0.4350    -1.5610     3.2590 hc         1 DII       0.046283
     25 H63          1.1770    -1.0880     3.7920 hc         1 DII       0.046283
     26 H71         -2.6270     1.5350    -0.1970 hc         1 DII       0.083033
     27 H72         -3.0550     0.2490    -1.3330 hc         1 DII       0.083033
     28 H73         -3.3810     0.0430     0.3900 hc         1 DII       0.083033
@<TRIPOS>BOND
     1     1     2 2   
     2     1     3 1   
     3     1     7 1   
     4     1    11 1   
     5     3     4 1   
     6     4     5 1   
     7     4     6 1   
     8     4    12 1   
     9     5    13 1   
    10     5    14 1   
    11     5    15 1   
    12     6    16 1   
    13     6    17 1   
    14     6    18 1   
    15     7     8 1   
    16     8     9 1   
    17     8    10 1   
    18     8    19 1   
    19     9    20 1   
    20     9    21 1   
    21     9    22 1   
    22    10    23 1   
    23    10    24 1   
    24    10    25 1   
    25    11    26 1   
    26    11    27 1   
    27    11    28 1   
@<TRIPOS>SUBSTRUCTURE
     1 DII         1 TEMP              0 ****  ****    0 ROOT
