@<TRIPOS>MOLECULE
DII
   28    27     1     0     0
SMALL
No Charge or Current Charge


@<TRIPOS>ATOM
      1 P1          -1.0770    -0.2370    -0.1610 p5         1 DII       1.351800
      2 O1          -1.1510    -1.7210    -0.0740 o          1 DII      -0.584000
      3 O2          -0.5170     0.3880    -1.5440 os         1 DII      -0.618400
      4 C1           0.4340    -0.2610    -2.4040 c3         1 DII       0.236300
      5 C2           0.6760     0.7050    -3.5770 c3         1 DII      -0.107850
      6 C3           1.7330    -0.5980    -1.6430 c3         1 DII      -0.107850
      7 O3          -0.2330     0.5430     0.9770 os         1 DII      -0.618400
      8 C4           0.8280    -0.0680     1.7200 c3         1 DII       0.236300
      9 C5           1.7270     1.0720     2.2270 c3         1 DII      -0.107850
     10 C6           0.2110    -0.9040     2.8620 c3         1 DII      -0.107850
     11 C7          -2.6960     0.5800    -0.0270 c3         1 DII      -0.465100
     12 H1           0.0110    -1.1920    -2.8070 h1         1 DII       0.045200
     13 H21          1.3650     0.2610    -4.3050 hc         1 DII       0.046283
     14 H22         -0.2660     0.9270    -4.0920 hc         1 DII       0.046283
     15 H23          1.1100     1.6470    -3.2220 hc         1 DII       0.046283
     16 H31          2.0840     0.2620    -1.0600 hc         1 DII       0.046283
     17 H32          1.5870    -1.4580    -0.9800 hc         1 DII       0.046283
     18 H33          2.5250    -0.8720    -2.3510 hc         1 DII       0.046283
     19 H4           1.4310    -0.7330     1.0910 h1         1 DII       0.045200
     20 H51          2.5650     0.6710     2.8070 hc         1 DII       0.046283
     21 H52          2.1370     1.6400     1.3830 hc         1 DII       0.046283
     22 H53          1.1610     1.7600     2.8660 hc         1 DII       0.046283
     23 H61         -0.4590    -0.2900     3.4750 hc         1 DII       0.046283
     24 H62         -0.3560    -1.7570     2.4730 hc         1 DII       0.046283
     25 H63          1.0010    -1.2990     3.5120 hc         1 DII       0.046283
     26 H71         -2.5530     1.6610    -0.1090 hc         1 DII       0.083033
     27 H72         -3.3400     0.2230    -0.8360 hc         1 DII       0.083033
     28 H73         -3.1360     0.3320     0.9440 hc         1 DII       0.083033
@<TRIPOS>BOND
     1     1     2 2   
     2     1     3 1   
     3     1     7 1   
     4     1    11 1   
     5     3     4 1   
     6     4     5 1   
     7     4     6 1   
     8     4    12 1   
     9     5    13 1   
    10     5    14 1   
    11     5    15 1   
    12     6    16 1   
    13     6    17 1   
    14     6    18 1   
    15     7     8 1   
    16     8     9 1   
    17     8    10 1   
    18     8    19 1   
    19     9    20 1   
    20     9    21 1   
    21     9    22 1   
    22    10    23 1   
    23    10    24 1   
    24    10    25 1   
    25    11    26 1   
    26    11    27 1   
    27    11    28 1   
@<TRIPOS>SUBSTRUCTURE
     1 DII         1 TEMP              0 ****  ****    0 ROOT
