@<TRIPOS>MOLECULE
DIJ
   20    20     1     0     0
SMALL
No Charge or Current Charge


@<TRIPOS>ATOM
      1 C4          45.9210    93.6700    34.8810 ca         1 DIJ      -0.105500
      2 C5          47.3200    93.8130    34.7990 ca         1 DIJ      -0.075300
      3 C6          48.2350    92.7180    35.3350 c3         1 DIJ      -0.023100
      4 C7          48.2540    91.4560    34.4400 c3         1 DIJ      -0.201400
      5 C8          48.9160    91.7250    33.0860 c          1 DIJ       0.575900
      6 Br          44.4720    97.2020    33.1310 br         1 DIJ      -0.098100
      7 C2          45.6230    95.8320    33.8060 ca         1 DIJ      -0.015900
      8 C1          47.0170    95.9840    33.7220 ca         1 DIJ      -0.079500
      9 C3          45.0730    94.6770    34.3860 ca         1 DIJ      -0.079500
     10 C           47.8640    94.9760    34.2180 ca         1 DIJ      -0.105500
     11 O           48.3050    92.1340    32.1050 o          1 DIJ      -0.507100
     12 H1          45.4890    92.7780    35.3290 ha         1 DIJ       0.115000
     13 H2          47.9010    92.4290    36.3400 hc         1 DIJ       0.053200
     14 H3          49.2590    93.0930    35.4570 hc         1 DIJ       0.053200
     15 H4          47.2310    91.0940    34.2890 hc         1 DIJ       0.070200
     16 H5          48.8580    90.7080    34.9660 hc         1 DIJ       0.070200
     17 H6          50.0090    91.5280    33.0390 h4         1 DIJ      -0.022800
     18 H7          47.4420    96.8790    33.2730 ha         1 DIJ       0.130000
     19 H8          43.9940    94.5610    34.4520 ha         1 DIJ       0.130000
     20 H9          48.9420    95.1010    34.1470 ha         1 DIJ       0.115000
@<TRIPOS>BOND
     1     1     2 ar  
     2     1     9 ar  
     3     1    12 1   
     4     2     3 1   
     5     2    10 ar  
     6     3     4 1   
     7     3    13 1   
     8     3    14 1   
     9     4     5 1   
    10     4    15 1   
    11     4    16 1   
    12     5    11 2   
    13     5    17 1   
    14     6     7 1   
    15     7     8 ar  
    16     7     9 ar  
    17     8    10 ar  
    18     8    18 1   
    19     9    19 1   
    20    10    20 1   
@<TRIPOS>SUBSTRUCTURE
     1 DIJ         1 TEMP              0 ****  ****    0 ROOT
