@<TRIPOS>MOLECULE
DIJ
   20    20     1     0     0
SMALL
abcg2


@<TRIPOS>ATOM
      1 C4          45.9220    93.7190    34.9510 ca         1 DIJ      -0.105500
      2 C5          47.3070    93.7870    34.8260 ca         1 DIJ      -0.075300
      3 C6          48.1780    92.6760    35.3440 c3         1 DIJ      -0.023100
      4 C7          48.2300    91.4830    34.3830 c3         1 DIJ      -0.201400
      5 C8          48.8920    91.8430    33.0880 c          1 DIJ       0.575900
      6 BR          44.5740    97.1850    33.1400 br         1 DIJ      -0.098100
      7 C2          45.6800    95.8090    33.8160 ca         1 DIJ      -0.015900
      8 C1          47.0550    95.9050    33.6740 ca         1 DIJ      -0.079500
      9 C3          45.1020    94.7200    34.4530 ca         1 DIJ      -0.079500
     10 C           47.8570    94.8910    34.1820 ca         1 DIJ      -0.105500
     11 O           48.4620    91.5900    31.9910 o          1 DIJ      -0.507100
     12 H1          45.4680    92.8710    35.4510 ha         1 DIJ       0.115000
     13 H2          47.8030    92.3250    36.3070 hc         1 DIJ       0.053200
     14 H3          49.1910    93.0460    35.5200 hc         1 DIJ       0.053200
     15 H4          47.2360    91.0720    34.2000 hc         1 DIJ       0.070200
     16 H5          48.8380    90.6940    34.8400 hc         1 DIJ       0.070200
     17 H6          49.8590    92.3690    33.2060 h4         1 DIJ      -0.022800
     18 H7          47.5080    96.7540    33.1810 ha         1 DIJ       0.130000
     19 H8          44.0290    94.6460    34.5690 ha         1 DIJ       0.130000
     20 H9          48.9320    94.9740    34.0770 ha         1 DIJ       0.115000
@<TRIPOS>BOND
     1     1     2 ar  
     2     1     9 ar  
     3     1    12 1   
     4     2     3 1   
     5     2    10 ar  
     6     3     4 1   
     7     3    13 1   
     8     3    14 1   
     9     4     5 1   
    10     4    15 1   
    11     4    16 1   
    12     5    11 2   
    13     5    17 1   
    14     6     7 1   
    15     7     8 ar  
    16     7     9 ar  
    17     8    10 ar  
    18     8    18 1   
    19     9    19 1   
    20    10    20 1   
@<TRIPOS>SUBSTRUCTURE
     1 DIJ         1 TEMP              0 ****  ****    0 ROOT
