@<TRIPOS>MOLECULE
DIK
   45    45     1     0     0
SMALL
abcg2


@<TRIPOS>ATOM
      1 C1          -8.5570    -0.5970     0.2920 c3         1 DIK      -0.069400
      2 C2          -7.5110    -1.4250    -0.3930 c2         1 DIK      -0.023400
      3 C3          -6.1920    -1.1590    -0.3890 ce         1 DIK      -0.333200
      4 C4          -5.5330    -0.0280     0.2730 c          1 DIK       0.574300
      5 O1          -6.1190     0.8040     0.9420 o          1 DIK      -0.542100
      6 C5          -4.0360     0.0370     0.0690 c3         1 DIK      -0.176400
      7 C6          -3.3600     1.2370     0.7210 c3         1 DIK      -0.010100
      8 C7          -1.8730     1.2110     0.5020 ca         1 DIK      -0.130300
      9 C8          -1.0190     0.5990     1.4130 ca         1 DIK      -0.081000
     10 C9           0.3540     0.5330     1.2160 ca         1 DIK      -0.158000
     11 C10         -1.2980     1.7660    -0.6380 ca         1 DIK      -0.081000
     12 C11          0.0670     1.7110    -0.8540 ca         1 DIK      -0.158000
     13 C12          0.9150     1.0940     0.0690 ca         1 DIK       0.001000
     14 N1           2.2820     1.0990    -0.2300 ns         1 DIK      -0.157000
     15 C13          3.3210     0.5460     0.4480 c          1 DIK       0.603100
     16 O2           3.1880    -0.1110     1.4670 o          1 DIK      -0.579100
     17 C14          4.6760     0.8440    -0.1560 c3         1 DIK      -0.157400
     18 C15          5.6690    -0.3040    -0.0210 c3         1 DIK      -0.046400
     19 C16          7.0330     0.0730    -0.5760 c3         1 DIK      -0.208400
     20 C17          8.1110    -1.0210    -0.4910 c          1 DIK       0.718000
     21 O3           7.8620    -2.0290     0.1990 o          1 DIK      -0.737500
     22 O4           9.1680    -0.7980    -1.1190 o          1 DIK      -0.737500
     23 H1          -8.4900     0.4550     0.0190 hc         1 DIK       0.049033
     24 H1A         -9.5540    -0.9540     0.0430 hc         1 DIK       0.049033
     25 H1B         -8.4460    -0.6460     1.3760 hc         1 DIK       0.049033
     26 C18         -8.0240    -2.6310    -1.1130 c3         1 DIK      -0.069400
     27 H3          -5.5340    -1.8340    -0.9270 ha         1 DIK       0.181000
     28 H5          -3.6050    -0.8980     0.4450 hc         1 DIK       0.064700
     29 H5A         -3.8380     0.0230    -1.0090 hc         1 DIK       0.064700
     30 H6          -3.7790     2.1590     0.3130 hc         1 DIK       0.052700
     31 H6A         -3.5750     1.2440     1.7920 hc         1 DIK       0.052700
     32 H8          -1.4300     0.1600     2.3150 ha         1 DIK       0.104500
     33 H9           0.9690     0.0500     1.9570 ha         1 DIK       0.129000
     34 H10         -1.9240     2.2570    -1.3750 ha         1 DIK       0.104500
     35 H11          0.4820     2.1560    -1.7520 ha         1 DIK       0.129000
     36 HN1          2.5260     1.5980    -1.0720 hn         1 DIK       0.147000
     37 H14          4.5730     1.1320    -1.2050 hc         1 DIK       0.046200
     38 H14A         5.0650     1.7300     0.3590 hc         1 DIK       0.046200
     39 H15          5.7630    -0.5900     1.0260 hc         1 DIK       0.057200
     40 H15A         5.2840    -1.1810    -0.5470 hc         1 DIK       0.057200
     41 H16          6.9400     0.3910    -1.6200 hc         1 DIK       0.014200
     42 H16A         7.4080     0.9580    -0.0440 hc         1 DIK       0.014200
     43 H21         -8.7370    -2.3350    -1.8860 hc         1 DIK       0.049033
     44 H22         -7.2300    -3.2120    -1.5780 hc         1 DIK       0.049033
     45 H23         -8.5720    -3.2770    -0.4230 hc         1 DIK       0.049033
@<TRIPOS>BOND
     1     1     2 1   
     2     1    23 1   
     3     1    24 1   
     4     1    25 1   
     5     2     3 2   
     6     2    26 1   
     7     3     4 1   
     8     3    27 1   
     9     4     5 2   
    10     4     6 1   
    11     6     7 1   
    12     6    28 1   
    13     6    29 1   
    14     7     8 1   
    15     7    30 1   
    16     7    31 1   
    17     8     9 ar  
    18     8    11 ar  
    19     9    10 ar  
    20     9    32 1   
    21    10    13 ar  
    22    10    33 1   
    23    11    12 ar  
    24    11    34 1   
    25    12    13 ar  
    26    12    35 1   
    27    13    14 1   
    28    14    15 1   
    29    14    36 1   
    30    15    16 2   
    31    15    17 1   
    32    17    18 1   
    33    17    37 1   
    34    17    38 1   
    35    18    19 1   
    36    18    39 1   
    37    18    40 1   
    38    19    20 1   
    39    19    41 1   
    40    19    42 1   
    41    20    21 1   
    42    20    22 1   
    43    26    43 1   
    44    26    44 1   
    45    26    45 1   
@<TRIPOS>SUBSTRUCTURE
     1 DIK         1 TEMP              0 ****  ****    0 ROOT
