@<TRIPOS>MOLECULE
DIK
   45    45     1     0     0
SMALL
No Charge or Current Charge


@<TRIPOS>ATOM
      1 C1          -8.5640    -0.7370     0.0140 c3         1 DIK      -0.069400
      2 C2          -7.4160    -1.5900    -0.5040 c2         1 DIK      -0.023400
      3 C3          -6.1000    -1.2630    -0.4460 ce         1 DIK      -0.333200
      4 C4          -5.4960    -0.0180     0.1270 c          1 DIK       0.574300
      5 O1          -6.1660     0.8790     0.6240 o          1 DIK      -0.542100
      6 C5          -3.9650     0.0690     0.0560 c3         1 DIK      -0.176400
      7 C6          -3.3300     1.3460     0.6520 c3         1 DIK      -0.010100
      8 C7          -1.8130     1.3310     0.5310 ca         1 DIK      -0.130300
      9 C8          -1.0230     0.7710     1.5510 ca         1 DIK      -0.081000
     10 C9           0.3780     0.7520     1.4390 ca         1 DIK      -0.158000
     11 C10         -1.1860     1.8680    -0.6070 ca         1 DIK      -0.081000
     12 C11          0.2150     1.8480    -0.7190 ca         1 DIK      -0.158000
     13 C12          1.0120     1.2960     0.3000 ca         1 DIK       0.001000
     14 N1           2.4210     1.3090     0.1130 ns         1 DIK      -0.157000
     15 C13          3.4790     0.9370     0.9330 c          1 DIK       0.603100
     16 O2           3.3560     0.5260     2.0820 o          1 DIK      -0.579100
     17 C14          4.8640     1.1230     0.2950 c3         1 DIK      -0.157400
     18 C15          5.5050    -0.2340    -0.0820 c3         1 DIK      -0.046400
     19 C16          6.8990    -0.0840    -0.7390 c3         1 DIK      -0.208400
     20 C17          7.4750    -1.4690    -1.0830 c          1 DIK       0.718000
     21 O3           8.1310    -2.0490    -0.2320 o          1 DIK      -0.737500
     22 O4           7.2040    -1.9510    -2.1730 o          1 DIK      -0.737500
     23 H1          -8.5930     0.2340    -0.4950 hc         1 DIK       0.049033
     24 H1A         -9.5410    -1.2120    -0.1410 hc         1 DIK       0.049033
     25 H1B         -8.4630    -0.5520     1.0900 hc         1 DIK       0.049033
     26 C18         -7.8960    -2.8940    -1.1160 c3         1 DIK      -0.069400
     27 H3          -5.3680    -1.9590    -0.8510 ha         1 DIK       0.181000
     28 H5          -3.5580    -0.8400     0.5140 hc         1 DIK       0.064700
     29 H5A         -3.6720    -0.0800    -0.9900 hc         1 DIK       0.064700
     30 H6          -3.7410     2.2260     0.1420 hc         1 DIK       0.052700
     31 H6A         -3.6230     1.4370     1.7060 hc         1 DIK       0.052700
     32 H8          -1.4960     0.3450     2.4340 ha         1 DIK       0.104500
     33 H9           0.9500     0.3040     2.2450 ha         1 DIK       0.129000
     34 H10         -1.7830     2.2990    -1.4080 ha         1 DIK       0.104500
     35 H11          0.6830     2.2680    -1.6080 ha         1 DIK       0.129000
     36 HN1          2.7070     1.6510    -0.7950 hn         1 DIK       0.147000
     37 H14          4.7790     1.7310    -0.6140 hc         1 DIK       0.046200
     38 H14A         5.5190     1.6270     1.0160 hc         1 DIK       0.046200
     39 H15          5.5960    -0.8550     0.8190 hc         1 DIK       0.057200
     40 H15A         4.8380    -0.7700    -0.7700 hc         1 DIK       0.057200
     41 H16          6.7400     0.5040    -1.6510 hc         1 DIK       0.014200
     42 H16A         7.5300     0.4190     0.0050 hc         1 DIK       0.014200
     43 H21         -8.5670    -2.7090    -1.9630 hc         1 DIK       0.049033
     44 H22         -7.0610    -3.5010    -1.4860 hc         1 DIK       0.049033
     45 H23         -8.4400    -3.4990    -0.3810 hc         1 DIK       0.049033
@<TRIPOS>BOND
     1     1     2 1   
     2     1    23 1   
     3     1    24 1   
     4     1    25 1   
     5     2     3 2   
     6     2    26 1   
     7     3     4 1   
     8     3    27 1   
     9     4     5 2   
    10     4     6 1   
    11     6     7 1   
    12     6    28 1   
    13     6    29 1   
    14     7     8 1   
    15     7    30 1   
    16     7    31 1   
    17     8     9 ar  
    18     8    11 ar  
    19     9    10 ar  
    20     9    32 1   
    21    10    13 ar  
    22    10    33 1   
    23    11    12 ar  
    24    11    34 1   
    25    12    13 ar  
    26    12    35 1   
    27    13    14 1   
    28    14    15 1   
    29    14    36 1   
    30    15    16 2   
    31    15    17 1   
    32    17    18 1   
    33    17    37 1   
    34    17    38 1   
    35    18    19 1   
    36    18    39 1   
    37    18    40 1   
    38    19    20 1   
    39    19    41 1   
    40    19    42 1   
    41    20    21 1   
    42    20    22 1   
    43    26    43 1   
    44    26    44 1   
    45    26    45 1   
@<TRIPOS>SUBSTRUCTURE
     1 DIK         1 TEMP              0 ****  ****    0 ROOT
