@<TRIPOS>MOLECULE
DIL
   21    20     1     0     0
SMALL
bcc


@<TRIPOS>ATOM
      1 N            1.6690    -1.4250     2.1930 n8         1 DIL      -0.891800
      2 CA           2.2320    -1.1450     3.5130 c3         1 DIL       0.017500
      3 C            2.9700     0.2140     3.6030 c          1 DIL       0.903600
      4 O            3.8690     0.3120     4.4630 o          1 DIL      -0.842300
      5 CB           1.1190    -1.2660     4.5770 c3         1 DIL      -0.025700
      6 CG1          1.6610    -1.3190     6.0070 c3         1 DIL      -0.072400
      7 CG2          0.0460    -0.1900     4.4210 c3         1 DIL      -0.072100
      8 CD1          0.6280    -1.7630     7.0360 c3         1 DIL      -0.084100
      9 OXT          2.5950     1.1090     2.8160 o          1 DIL      -0.842300
     10 H            1.3160    -0.5470     1.8280 hn         1 DIL       0.326300
     11 H2           2.4280    -1.6640     1.5650 hn         1 DIL       0.326300
     12 HA           2.9540    -1.9390     3.7320 h1         1 DIL       0.031700
     13 HB           0.6440    -2.2350     4.3760 hc         1 DIL       0.017700
     14 HG12         2.0630    -0.3430     6.2890 hc         1 DIL       0.051200
     15 HG13         2.5080    -2.0110     6.0370 hc         1 DIL       0.051200
     16 HG21        -0.3340    -0.1410     3.4000 hc         1 DIL       0.022033
     17 HG22         0.4280     0.7980     4.6820 hc         1 DIL       0.022033
     18 HG23        -0.8100    -0.3900     5.0660 hc         1 DIL       0.022033
     19 HD11        -0.1930    -1.0510     7.1280 hc         1 DIL       0.013033
     20 HD12         1.0780    -1.8630     8.0240 hc         1 DIL       0.013033
     21 HD13         0.1960    -2.7300     6.7710 hc         1 DIL       0.013033
@<TRIPOS>BOND
     1     1     2 1   
     2     1    10 1   
     3     1    11 1   
     4     2     3 1   
     5     2     5 1   
     6     2    12 1   
     7     3     4 1   
     8     3     9 1   
     9     5     6 1   
    10     5     7 1   
    11     5    13 1   
    12     6     8 1   
    13     6    14 1   
    14     6    15 1   
    15     7    16 1   
    16     7    17 1   
    17     7    18 1   
    18     8    19 1   
    19     8    20 1   
    20     8    21 1   
@<TRIPOS>SUBSTRUCTURE
     1 DIL         1 TEMP              0 ****  ****    0 ROOT
