@<TRIPOS>MOLECULE
DIL
   21    20     1     0     0
SMALL
No Charge or Current Charge


@<TRIPOS>ATOM
      1 N            1.7260    -1.4430     2.1110 n8         1 DIL      -0.891800
      2 CA           2.2390    -1.1420     3.5040 c3         1 DIL       0.017500
      3 C            3.0580     0.2150     3.6900 c          1 DIL       0.903600
      4 O            4.1380     0.1710     4.2700 o          1 DIL      -0.842300
      5 CB           1.0920    -1.2930     4.5580 c3         1 DIL      -0.025700
      6 CG1          1.6470    -1.3190     6.0120 c3         1 DIL      -0.072400
      7 CG2         -0.0340    -0.2380     4.3820 c3         1 DIL      -0.072100
      8 CD1          0.6170    -1.7160     7.0930 c3         1 DIL      -0.084100
      9 OXT          2.6870     1.2190     3.0890 o          1 DIL      -0.842300
     10 H            1.1360    -0.6610     1.8100 hn         1 DIL       0.326300
     11 H2           2.5130    -1.4230     1.4540 hn         1 DIL       0.326300
     12 HA           2.9580    -1.9440     3.7170 h1         1 DIL       0.031700
     13 HB           0.6330    -2.2750     4.3830 hc         1 DIL       0.017700
     14 HG12         2.0620    -0.3370     6.2690 hc         1 DIL       0.051200
     15 HG13         2.4790    -2.0330     6.0610 hc         1 DIL       0.051200
     16 HG21        -0.3930    -0.2070     3.3470 hc         1 DIL       0.022033
     17 HG22         0.3190     0.7640     4.6530 hc         1 DIL       0.022033
     18 HG23        -0.8970    -0.4760     5.0150 hc         1 DIL       0.022033
     19 HD11        -0.1700    -0.9590     7.1890 hc         1 DIL       0.013033
     20 HD12         1.1100    -1.8120     8.0680 hc         1 DIL       0.013033
     21 HD13         0.1500    -2.6780     6.8510 hc         1 DIL       0.013033
@<TRIPOS>BOND
     1     1     2 1   
     2     1    10 1   
     3     1    11 1   
     4     2     3 1   
     5     2     5 1   
     6     2    12 1   
     7     3     4 1   
     8     3     9 1   
     9     5     6 1   
    10     5     7 1   
    11     5    13 1   
    12     6     8 1   
    13     6    14 1   
    14     6    15 1   
    15     7    16 1   
    16     7    17 1   
    17     7    18 1   
    18     8    19 1   
    19     8    20 1   
    20     8    21 1   
@<TRIPOS>SUBSTRUCTURE
     1 DIL         1 TEMP              0 ****  ****    0 ROOT
