@<TRIPOS>MOLECULE
DIM
   46    47     1     0     0
SMALL
bcc


@<TRIPOS>ATOM
      1 O1           7.2040    -2.7800    -0.4980 o          1 DIM      -0.582100
      2 C1           6.1330    -3.3350    -0.6450 c          1 DIM       0.672900
      3 N1           4.9340    -2.7280    -0.5660 ns         1 DIM      -0.542400
      4 C2           4.7240    -1.3820    -0.3090 cc         1 DIM       0.428200
      5 N2           3.4670    -0.9060    -0.2600 nc         1 DIM      -0.716000
      6 C3           3.5810     0.3830    -0.0050 cd         1 DIM       0.335000
      7 N3           4.8730     0.7500     0.1120 na         1 DIM      -0.121900
      8 C4           5.6270    -0.3680    -0.0800 cd         1 DIM      -0.240600
      9 C5           5.4300     2.0630     0.3840 c3         1 DIM       0.028600
     10 C6           2.4280     1.2890     0.1330 c          1 DIM       0.621600
     11 O2           2.5380     2.4790     0.3820 o          1 DIM      -0.597100
     12 N4           1.2450     0.6630    -0.0420 ns         1 DIM      -0.514400
     13 C7           0.0010     1.2650     0.0360 cc         1 DIM       0.447200
     14 N5          -1.0980     0.5230    -0.1920 nc         1 DIM      -0.713000
     15 C8          -2.1220     1.3410    -0.0470 cd         1 DIM       0.319000
     16 N6          -1.7140     2.5880     0.2660 na         1 DIM      -0.119900
     17 C9          -0.3530     2.5640     0.3250 cd         1 DIM      -0.235600
     18 C10         -2.5110     3.7790     0.5040 c3         1 DIM       0.027600
     19 C11         -3.5290     0.9230    -0.2060 c          1 DIM       0.620600
     20 O3          -4.4680     1.6770     0.0030 o          1 DIM      -0.614100
     21 N7          -3.6680    -0.3510    -0.6070 ns         1 DIM      -0.560900
     22 C12         -4.9540    -0.9670    -0.7870 c3         1 DIM       0.118000
     23 C13         -5.5310    -1.4780     0.5450 c3         1 DIM      -0.212700
     24 C14         -6.8650    -2.1120     0.3230 c2         1 DIM       0.457800
     25 N9          -6.9160    -3.3660    -0.0510 nv         1 DIM      -0.463100
     26 N8          -7.9450    -1.3870     0.4570 nv         1 DIM      -0.447200
     27 H1           6.0340    -4.4070    -0.8580 h5         1 DIM       0.025200
     28 HN1          4.1070    -3.2910    -0.7050 hn         1 DIM       0.333500
     29 H4           6.7000    -0.3430    -0.0400 h4         1 DIM       0.211000
     30 H51          5.1520     2.7680    -0.3940 h1         1 DIM       0.068367
     31 H52          5.0910     2.4360     1.3460 h1         1 DIM       0.068367
     32 H53          6.5120     1.9690     0.4030 h1         1 DIM       0.068367
     33 HN4          1.2560    -0.3280    -0.2440 hn         1 DIM       0.364500
     34 H9           0.2200     3.4430     0.5580 h4         1 DIM       0.214000
     35 H101        -3.1410     3.9980    -0.3530 h1         1 DIM       0.069033
     36 H102        -3.1340     3.6560     1.3850 h1         1 DIM       0.069033
     37 H103        -1.8320     4.6100     0.6650 h1         1 DIM       0.069033
     38 HN7         -2.8390    -0.9140    -0.7150 hn         1 DIM       0.363500
     39 H121        -5.6420    -0.2550    -1.2430 h1         1 DIM       0.068200
     40 H122        -4.8320    -1.7940    -1.4840 h1         1 DIM       0.068200
     41 H131        -4.8540    -2.2090     0.9860 hc         1 DIM       0.108200
     42 H132        -5.6360    -0.6540     1.2500 hc         1 DIM       0.108200
     43 HN91        -6.0700    -3.9040    -0.1470 hn         1 DIM       0.331200
     44 HN92        -7.7830    -3.8360    -0.2610 hn         1 DIM       0.331200
     45 HN81        -8.8690    -1.7510     0.2800 hn         1 DIM       0.331200
     46 HN82        -7.8830    -0.4260     0.7510 hn         1 DIM       0.331200
@<TRIPOS>BOND
     1     1     2 2   
     2     2     3 1   
     3     2    27 1   
     4     3     4 1   
     5     3    28 1   
     6     4     5 1   
     7     4     8 2   
     8     5     6 2   
     9     6     7 1   
    10     6    10 1   
    11     7     8 1   
    12     7     9 1   
    13     8    29 1   
    14     9    30 1   
    15     9    31 1   
    16     9    32 1   
    17    10    11 2   
    18    10    12 1   
    19    12    13 1   
    20    12    33 1   
    21    13    14 1   
    22    13    17 2   
    23    14    15 2   
    24    15    16 1   
    25    15    19 1   
    26    16    17 1   
    27    16    18 1   
    28    17    34 1   
    29    18    35 1   
    30    18    36 1   
    31    18    37 1   
    32    19    20 2   
    33    19    21 1   
    34    21    22 1   
    35    21    38 1   
    36    22    23 1   
    37    22    39 1   
    38    22    40 1   
    39    23    24 1   
    40    23    41 1   
    41    23    42 1   
    42    24    25 2   
    43    24    26 1   
    44    25    43 1   
    45    25    44 1   
    46    26    45 1   
    47    26    46 1   
@<TRIPOS>SUBSTRUCTURE
     1 DIM         1 TEMP              0 ****  ****    0 ROOT
