@<TRIPOS>MOLECULE
DIM
   46    47     1     0     0
SMALL
No Charge or Current Charge


@<TRIPOS>ATOM
      1 O1           7.0750    -3.0100    -0.6500 o          1 DIM      -0.582100
      2 C1           5.9430    -3.4500    -0.8050 c          1 DIM       0.605900
      3 N1           4.8010    -2.6930    -0.6790 ns         1 DIM      -0.475400
      4 C2           4.6820    -1.3660    -0.3730 cc         1 DIM       0.362900
      5 N2           3.4420    -0.8350    -0.3040 nc         1 DIM      -0.716000
      6 C3           3.6220     0.4570     0.0080 cd         1 DIM       0.335000
      7 N3           4.9930     0.7200     0.1320 na         1 DIM      -0.100500
      8 C4           5.6690    -0.4630    -0.1150 cd         1 DIM      -0.208000
      9 C5           5.6180     2.0110     0.4640 c3         1 DIM       0.057900
     10 C6           2.4870     1.4450     0.1880 c          1 DIM       0.554600
     11 O2           2.6240     2.6320     0.4730 o          1 DIM      -0.597100
     12 N4           1.2510     0.8630    -0.0050 ns         1 DIM      -0.447400
     13 C7           0.0080     1.4250     0.0700 cc         1 DIM       0.381900
     14 N5          -1.0650     0.6380    -0.1640 nc         1 DIM      -0.713000
     15 C8          -2.1330     1.4380    -0.0250 cd         1 DIM       0.319000
     16 N6          -1.7070     2.7330     0.2980 na         1 DIM      -0.098500
     17 C9          -0.3230     2.7140     0.3570 cd         1 DIM      -0.203000
     18 C10         -2.5590     3.9090     0.5350 c3         1 DIM       0.056900
     19 C11         -3.5650     0.9710    -0.2010 c          1 DIM       0.553600
     20 O3          -4.5640     1.6760    -0.0820 o          1 DIM      -0.614100
     21 N7          -3.6610    -0.3710    -0.5200 ns         1 DIM      -0.493900
     22 C12         -4.9080    -1.1040    -0.7370 c3         1 DIM       0.118000
     23 C13         -5.6030    -1.4540     0.5960 c3         1 DIM      -0.212700
     24 C14         -6.8940    -2.2040     0.4100 c2         1 DIM       0.457800
     25 N9          -6.8190    -3.5300     0.0630 nv         1 DIM      -0.563700
     26 N8          -7.9870    -1.5040    -0.0390 nv         1 DIM      -0.547800
     27 H1           5.7220    -4.5030    -1.0620 h5         1 DIM       0.025200
     28 HN1          3.9390    -3.1970    -0.8370 hn         1 DIM       0.333500
     29 H4           6.7460    -0.5640    -0.0900 h4         1 DIM       0.193000
     30 H51          5.3490     2.7580    -0.2930 h1         1 DIM       0.068367
     31 H52          5.2700     2.3490     1.4470 h1         1 DIM       0.068367
     32 H53          6.7100     1.9020     0.4880 h1         1 DIM       0.068367
     33 HN4          1.2970    -0.1210    -0.2350 hn         1 DIM       0.364500
     34 H9           0.2870     3.5780     0.5880 h4         1 DIM       0.196000
     35 H101        -3.1520     4.1230    -0.3620 h1         1 DIM       0.069033
     36 H102        -3.2330     3.7140     1.3790 h1         1 DIM       0.069033
     37 H103        -1.9360     4.7810     0.7690 h1         1 DIM       0.069033
     38 HN7         -2.7730    -0.8610    -0.6000 hn         1 DIM       0.363500
     39 H121        -5.5770    -0.4940    -1.3600 h1         1 DIM       0.068200
     40 H122        -4.6820    -2.0260    -1.2910 h1         1 DIM       0.068200
     41 H131        -4.9170    -2.0450     1.2150 hc         1 DIM       0.108200
     42 H132        -5.7950    -0.5320     1.1570 hc         1 DIM       0.108200
     43 HN91        -6.0210    -4.0430     0.4160 hn         1 DIM       0.381500
     44 HN92        -7.6880    -4.0450    -0.0010 hn         1 DIM       0.381500
     45 HN81        -8.8660    -2.0020    -0.0830 hn         1 DIM       0.381500
     46 HN82        -8.0380    -0.5260     0.2170 hn         1 DIM       0.381500
@<TRIPOS>BOND
     1     1     2 2   
     2     2     3 1   
     3     2    27 1   
     4     3     4 1   
     5     3    28 1   
     6     4     5 1   
     7     4     8 2   
     8     5     6 2   
     9     6     7 1   
    10     6    10 1   
    11     7     8 1   
    12     7     9 1   
    13     8    29 1   
    14     9    30 1   
    15     9    31 1   
    16     9    32 1   
    17    10    11 2   
    18    10    12 1   
    19    12    13 1   
    20    12    33 1   
    21    13    14 1   
    22    13    17 2   
    23    14    15 2   
    24    15    16 1   
    25    15    19 1   
    26    16    17 1   
    27    16    18 1   
    28    17    34 1   
    29    18    35 1   
    30    18    36 1   
    31    18    37 1   
    32    19    20 2   
    33    19    21 1   
    34    21    22 1   
    35    21    38 1   
    36    22    23 1   
    37    22    39 1   
    38    22    40 1   
    39    23    24 1   
    40    23    41 1   
    41    23    42 1   
    42    24    25 2   
    43    24    26 1   
    44    25    43 1   
    45    25    44 1   
    46    26    45 1   
    47    26    46 1   
@<TRIPOS>SUBSTRUCTURE
     1 DIM         1 TEMP              0 ****  ****    0 ROOT
