@<TRIPOS>MOLECULE
DIO
   14    14     1     0     0
SMALL
abcg2


@<TRIPOS>ATOM
      1 C1          -1.1650     0.1910     0.7390 c6         1 DIO       0.115600
      2 C2           1.1600     0.2260     0.7330 c6         1 DIO       0.115600
      3 C3          -1.1620    -0.2750    -0.7040 c6         1 DIO       0.115600
      4 C4           1.1630    -0.2420    -0.7090 c6         1 DIO       0.115600
      5 O1           0.0060    -0.2330     1.4070 os         1 DIO      -0.446000
      6 O2          -0.0070     0.1820    -1.3780 os         1 DIO      -0.446000
      7 H11         -1.2520     1.2870     0.7750 h1         1 DIO       0.053700
      8 H12         -2.0210    -0.2300     1.2680 h1         1 DIO       0.053700
      9 H21          2.0310    -0.1710     1.2590 h1         1 DIO       0.053700
     10 H22          1.2160     1.3230     0.7690 h1         1 DIO       0.053700
     11 H1'1        -1.2200    -1.3720    -0.7400 h1         1 DIO       0.053700
     12 H1'2        -2.0310     0.1230    -1.2290 h1         1 DIO       0.053700
     13 H2'1         1.2520    -1.3370    -0.7440 h1         1 DIO       0.053700
     14 H2'2         2.0190     0.1790    -1.2390 h1         1 DIO       0.053700
@<TRIPOS>BOND
     1     1     3 1   
     2     1     5 1   
     3     1     7 1   
     4     1     8 1   
     5     2     4 1   
     6     2     5 1   
     7     2     9 1   
     8     2    10 1   
     9     3     6 1   
    10     3    11 1   
    11     3    12 1   
    12     4     6 1   
    13     4    13 1   
    14     4    14 1   
@<TRIPOS>SUBSTRUCTURE
     1 DIO         1 TEMP              0 ****  ****    0 ROOT
