@<TRIPOS>MOLECULE
DIO
   14    14     1     0     0
SMALL
bcc


@<TRIPOS>ATOM
      1 O1          -1.1650     0.1910     0.7390 c6         1 DIO      -0.058000
      2 O2           1.1600     0.2260     0.7330 c6         1 DIO      -0.058000
      3 O3          -1.1620    -0.2750    -0.7040 c6         1 DIO      -0.058000
      4 O4           1.1630    -0.2420    -0.7090 c6         1 DIO      -0.058000
      5 O1           0.0060    -0.2330     1.4070 os         1 DIO      -0.256000
      6 O2          -0.0070     0.1820    -1.3780 os         1 DIO      -0.256000
      7 O11         -1.2520     1.2870     0.7750 ho         1 DIO       0.093000
      8 O12         -2.0210    -0.2300     1.2680 ho         1 DIO       0.093000
      9 O21          2.0310    -0.1710     1.2590 ho         1 DIO       0.093000
     10 O22          1.2160     1.3230     0.7690 ho         1 DIO       0.093000
     11 O1'1        -1.2200    -1.3720    -0.7400 ho         1 DIO       0.093000
     12 O1'2        -2.0310     0.1230    -1.2290 ho         1 DIO       0.093000
     13 O2'1         1.2520    -1.3370    -0.7440 ho         1 DIO       0.093000
     14 O2'2         2.0190     0.1790    -1.2390 ho         1 DIO       0.093000
@<TRIPOS>BOND
     1     1     3 1   
     2     1     5 1   
     3     1     7 1   
     4     1     8 1   
     5     2     4 1   
     6     2     5 1   
     7     2     9 1   
     8     2    10 1   
     9     3     6 1   
    10     3    11 1   
    11     3    12 1   
    12     4     6 1   
    13     4    13 1   
    14     4    14 1   
@<TRIPOS>SUBSTRUCTURE
     1 DIO         1 TEMP              0 ****  ****    0 ROOT
