@<TRIPOS>MOLECULE
DIO
   14    14     1     0     0
SMALL
No Charge or Current Charge


@<TRIPOS>ATOM
      1 C1          -1.2090     0.2000     0.7560 c6         1 DIO       0.115600
      2 C2           1.2040     0.2340     0.7510 c6         1 DIO       0.115600
      3 C3          -1.2060    -0.2840    -0.7210 c6         1 DIO       0.115600
      4 C4           1.2080    -0.2500    -0.7270 c6         1 DIO       0.115600
      5 O1           0.0060    -0.2400     1.4150 os         1 DIO      -0.446000
      6 O2          -0.0070     0.1900    -1.3850 os         1 DIO      -0.446000
      7 H11         -1.2730     1.2970     0.7960 h1         1 DIO       0.053700
      8 H12         -2.0780    -0.2150     1.2870 h1         1 DIO       0.053700
      9 H21          2.0870    -0.1550     1.2770 h1         1 DIO       0.053700
     10 H22          1.2370     1.3330     0.7900 h1         1 DIO       0.053700
     11 H1'1        -1.2380    -1.3830    -0.7610 h1         1 DIO       0.053700
     12 H1'2        -2.0880     0.1060    -1.2470 h1         1 DIO       0.053700
     13 H2'1         1.2710    -1.3470    -0.7670 h1         1 DIO       0.053700
     14 H2'2         2.0760     0.1650    -1.2570 h1         1 DIO       0.053700
@<TRIPOS>BOND
     1     1     3 1   
     2     1     5 1   
     3     1     7 1   
     4     1     8 1   
     5     2     4 1   
     6     2     5 1   
     7     2     9 1   
     8     2    10 1   
     9     3     6 1   
    10     3    11 1   
    11     3    12 1   
    12     4     6 1   
    13     4    13 1   
    14     4    14 1   
@<TRIPOS>SUBSTRUCTURE
     1 DIO         1 TEMP              0 ****  ****    0 ROOT
