@<TRIPOS>MOLECULE
DIP
   34    33     1     0     0
SMALL
No Charge or Current Charge


@<TRIPOS>ATOM
      1 N           42.3470    -8.5150    44.2460 n7         1 DIP      -0.862400
      2 C1          43.5730    -9.2860    44.5630 c3         1 DIP       0.159800
      3 C2          43.5070   -10.7290    44.0140 c3         1 DIP      -0.093400
      4 C3          44.8240   -11.5110    44.2370 c3         1 DIP      -0.070900
      5 C4          44.8290   -12.9390    43.6410 c3         1 DIP      -0.075400
      6 C5          43.8260   -13.9090    44.3000 c3         1 DIP      -0.088100
      7 C6          41.0690    -8.9440    44.8670 c3         1 DIP       0.159800
      8 C7          41.0880    -8.8760    46.4150 c3         1 DIP      -0.093400
      9 C8          41.3540    -7.4640    46.9910 c3         1 DIP      -0.070900
     10 C9          41.3100    -7.4240    48.5340 c3         1 DIP      -0.075400
     11 C10         41.5770    -6.0200    49.1100 c3         1 DIP      -0.088100
     12 HN          42.2250    -8.5240    43.2260 hn         1 DIP       0.407000
     13 H11         44.4400    -8.7860    44.1100 h1         1 DIP       0.037700
     14 H12         43.7530    -9.3150    45.6460 h1         1 DIP       0.037700
     15 H21         42.6870   -11.2660    44.5030 hc         1 DIP       0.036950
     16 H22         43.2850   -10.7000    42.9400 hc         1 DIP       0.036950
     17 H31         45.6500   -10.9460    43.7860 hc         1 DIP       0.041700
     18 H32         45.0350   -11.5670    45.3120 hc         1 DIP       0.041700
     19 H41         44.6270   -12.8860    42.5640 hc         1 DIP       0.035200
     20 H42         45.8380   -13.3570    43.7490 hc         1 DIP       0.035200
     21 H51         43.9480   -14.9180    43.8870 hc         1 DIP       0.030700
     22 H52         43.9890   -13.9610    45.3830 hc         1 DIP       0.030700
     23 H53         42.7920   -13.5940    44.1180 hc         1 DIP       0.030700
     24 H1'1        40.2550    -8.2980    44.5100 h1         1 DIP       0.037700
     25 H1'2        40.8130    -9.9680    44.5610 h1         1 DIP       0.037700
     26 H2'1        40.1140    -9.2240    46.7800 hc         1 DIP       0.036950
     27 H2'2        41.8280    -9.5820    46.8100 hc         1 DIP       0.036950
     28 H3'1        42.3370    -7.1120    46.6550 hc         1 DIP       0.041700
     29 H3'2        40.6090    -6.7660    46.5900 hc         1 DIP       0.041700
     30 H4'1        40.3280    -7.7700    48.8800 hc         1 DIP       0.035200
     31 H4'2        42.0550    -8.1210    48.9380 hc         1 DIP       0.035200
     32 H5'1        41.5350    -6.0410    50.2050 hc         1 DIP       0.030700
     33 H5'2        42.5680    -5.6600    48.8110 hc         1 DIP       0.030700
     34 H5'3        40.8260    -5.3050    48.7520 hc         1 DIP       0.030700
@<TRIPOS>BOND
     1     1     2 1   
     2     1     7 1   
     3     1    12 1   
     4     2     3 1   
     5     2    13 1   
     6     2    14 1   
     7     3     4 1   
     8     3    15 1   
     9     3    16 1   
    10     4     5 1   
    11     4    17 1   
    12     4    18 1   
    13     5     6 1   
    14     5    19 1   
    15     5    20 1   
    16     6    21 1   
    17     6    22 1   
    18     6    23 1   
    19     7     8 1   
    20     7    24 1   
    21     7    25 1   
    22     8     9 1   
    23     8    26 1   
    24     8    27 1   
    25     9    10 1   
    26     9    28 1   
    27     9    29 1   
    28    10    11 1   
    29    10    30 1   
    30    10    31 1   
    31    11    32 1   
    32    11    33 1   
    33    11    34 1   
@<TRIPOS>SUBSTRUCTURE
     1 DIP         1 TEMP              0 ****  ****    0 ROOT
