@<TRIPOS>MOLECULE
DIP
   34    33     1     0     0
SMALL
abcg2


@<TRIPOS>ATOM
      1 N           42.3110    -8.3660    44.1160 n7         1 DIP      -0.862400
      2 C1          43.4930    -9.1690    44.3790 c3         1 DIP       0.159800
      3 C2          43.4290   -10.6480    43.9980 c3         1 DIP      -0.093400
      4 C3          44.7480   -11.3630    44.2710 c3         1 DIP      -0.070900
      5 C4          44.7500   -12.8400    43.8870 c3         1 DIP      -0.075400
      6 C5          43.7910   -13.6900    44.7110 c3         1 DIP      -0.088100
      7 C6          41.0690    -8.8550    44.6950 c3         1 DIP       0.159800
      8 C7          41.1010    -8.9220    46.2170 c3         1 DIP      -0.093400
      9 C8          41.4400    -7.6060    46.9040 c3         1 DIP      -0.070900
     10 C9          41.3920    -7.7070    48.4250 c3         1 DIP      -0.075400
     11 C10         41.7300    -6.3950    49.1190 c3         1 DIP      -0.088100
     12 HN          42.1880    -8.2800    43.1150 hn         1 DIP       0.407000
     13 H11         44.3260    -8.7020    43.8450 h1         1 DIP       0.037700
     14 H12         43.7440    -9.0880    45.4420 h1         1 DIP       0.037700
     15 H21         42.6230   -11.1370    44.5500 hc         1 DIP       0.036950
     16 H22         43.1760   -10.7400    42.9350 hc         1 DIP       0.036950
     17 H31         45.5490   -10.8510    43.7280 hc         1 DIP       0.041700
     18 H32         44.9970   -11.2680    45.3340 hc         1 DIP       0.041700
     19 H41         44.5070   -12.9390    42.8250 hc         1 DIP       0.035200
     20 H42         45.7630   -13.2330    44.0030 hc         1 DIP       0.035200
     21 H51         43.8680   -14.7450    44.4440 hc         1 DIP       0.030700
     22 H52         44.0090   -13.6040    45.7780 hc         1 DIP       0.030700
     23 H53         42.7520   -13.3940    44.5630 hc         1 DIP       0.030700
     24 H1'1        40.2780    -8.1640    44.3910 h1         1 DIP       0.037700
     25 H1'2        40.7730    -9.8430    44.3140 h1         1 DIP       0.037700
     26 H2'1        40.1150    -9.2610    46.5500 hc         1 DIP       0.036950
     27 H2'2        41.8010    -9.6970    46.5450 hc         1 DIP       0.036950
     28 H3'1        42.4350    -7.2680    46.5980 hc         1 DIP       0.041700
     29 H3'2        40.7420    -6.8310    46.5690 hc         1 DIP       0.041700
     30 H4'1        40.3960    -8.0400    48.7340 hc         1 DIP       0.035200
     31 H4'2        42.0860    -8.4850    48.7560 hc         1 DIP       0.035200
     32 H5'1        41.6970    -6.4950    50.2050 hc         1 DIP       0.030700
     33 H5'2        42.7320    -6.0530    48.8510 hc         1 DIP       0.030700
     34 H5'3        41.0290    -5.6060    48.8390 hc         1 DIP       0.030700
@<TRIPOS>BOND
     1     1     2 1   
     2     1     7 1   
     3     1    12 1   
     4     2     3 1   
     5     2    13 1   
     6     2    14 1   
     7     3     4 1   
     8     3    15 1   
     9     3    16 1   
    10     4     5 1   
    11     4    17 1   
    12     4    18 1   
    13     5     6 1   
    14     5    19 1   
    15     5    20 1   
    16     6    21 1   
    17     6    22 1   
    18     6    23 1   
    19     7     8 1   
    20     7    24 1   
    21     7    25 1   
    22     8     9 1   
    23     8    26 1   
    24     8    27 1   
    25     9    10 1   
    26     9    28 1   
    27     9    29 1   
    28    10    11 1   
    29    10    30 1   
    30    10    31 1   
    31    11    32 1   
    32    11    33 1   
    33    11    34 1   
@<TRIPOS>SUBSTRUCTURE
     1 DIP         1 TEMP              0 ****  ****    0 ROOT
