@<TRIPOS>MOLECULE
DIQ
   32    33     1     0     0
SMALL
No Charge or Current Charge


@<TRIPOS>ATOM
      1 N1          19.5020     1.8980    12.4370 n3         1 DIQ      -0.676600
      2 CM          20.4810     0.7930    12.5350 c3         1 DIQ       0.165100
      3 C2          18.8810     2.2560    13.7760 c6         1 DIQ       0.037500
      4 C           18.2530     1.0850    14.6420 c          1 DIQ       0.719000
      5 O           17.5550     0.2540    14.0710 o          1 DIQ      -0.725500
      6 C3          17.8250     3.3880    13.6190 c6         1 DIQ      -0.058400
      7 C3A         18.4170     4.6390    12.9090 c6         1 DIQ      -0.060700
      8 C4          17.3650     5.7680    12.7070 c6         1 DIQ      -0.063400
      9 C5          16.3110     5.4180    11.6240 c6         1 DIQ      -0.071400
     10 C6          16.9880     5.0360    10.2850 c6         1 DIQ      -0.069400
     11 C7          18.0060     3.8850    10.4740 c6         1 DIQ      -0.067400
     12 C7A         19.0720     4.2430    11.5530 c6         1 DIQ      -0.042700
     13 C8          20.0940     3.0900    11.7680 c6         1 DIQ       0.167800
     14 OXT         18.8080     0.8240    15.7030 o          1 DIQ      -0.725500
     15 HM1         20.8900     0.5500    11.5450 h1         1 DIQ       0.018700
     16 HM2         21.3160     1.0690    13.1930 h1         1 DIQ       0.018700
     17 HM3         20.0150    -0.1170    12.9340 h1         1 DIQ       0.018700
     18 H2          19.6850     2.6720    14.4030 h1         1 DIQ       0.005700
     19 H31         16.9590     2.9970    13.0700 hc         1 DIQ       0.048700
     20 H32         17.4520     3.6760    14.6110 hc         1 DIQ       0.048700
     21 H3A         19.2060     5.0400    13.5600 hc         1 DIQ       0.031700
     22 H41         16.8620     5.9890    13.6580 hc         1 DIQ       0.023200
     23 H42         17.8820     6.6930    12.4150 hc         1 DIQ       0.023200
     24 H51         15.6710     4.5950    11.9670 hc         1 DIQ       0.033200
     25 H52         15.6440     6.2770    11.4670 hc         1 DIQ       0.033200
     26 H61         16.2240     4.7410     9.5530 hc         1 DIQ       0.020200
     27 H62         17.4980     5.9140     9.8660 hc         1 DIQ       0.020200
     28 H71         17.4740     2.9640    10.7480 hc         1 DIQ       0.050200
     29 H72         18.5030     3.6760     9.5170 hc         1 DIQ       0.050200
     30 H7A         19.6340     5.1120    11.1830 hc         1 DIQ       0.014700
     31 H81         20.9300     3.4730    12.3720 h1         1 DIQ       0.006200
     32 H82         20.5140     2.8060    10.7920 h1         1 DIQ       0.006200
@<TRIPOS>BOND
     1     1     2 1   
     2     1     3 1   
     3     1    13 1   
     4     2    15 1   
     5     2    16 1   
     6     2    17 1   
     7     3     4 1   
     8     3     6 1   
     9     3    18 1   
    10     4     5 1   
    11     4    14 1   
    12     6     7 1   
    13     6    19 1   
    14     6    20 1   
    15     7     8 1   
    16     7    12 1   
    17     7    21 1   
    18     8     9 1   
    19     8    22 1   
    20     8    23 1   
    21     9    10 1   
    22     9    24 1   
    23     9    25 1   
    24    10    11 1   
    25    10    26 1   
    26    10    27 1   
    27    11    12 1   
    28    11    28 1   
    29    11    29 1   
    30    12    13 1   
    31    12    30 1   
    32    13    31 1   
    33    13    32 1   
@<TRIPOS>SUBSTRUCTURE
     1 DIQ         1 TEMP              0 ****  ****    0 ROOT
