@<TRIPOS>MOLECULE
DIQ
   32    33     1     0     0
SMALL
bcc


@<TRIPOS>ATOM
      1 N1          19.4700     1.9380    12.4390 n3         1 DIQ      -0.676600
      2 CM          20.4470     0.8750    12.5220 c3         1 DIQ       0.165100
      3 C2          18.9410     2.2850    13.7500 c6         1 DIQ       0.037500
      4 C           18.2510     1.1010    14.4740 c          1 DIQ       0.929600
      5 O           17.5480     0.3400    13.7810 o          1 DIQ      -0.830800
      6 C3          17.9050     3.4050    13.6240 c6         1 DIQ      -0.058400
      7 C3A         18.4450     4.6330    12.8980 c6         1 DIQ      -0.060700
      8 C4          17.3840     5.7200    12.7070 c6         1 DIQ      -0.063400
      9 C5          16.3340     5.3460    11.6640 c6         1 DIQ      -0.071400
     10 C6          16.9920     4.9780    10.3390 c6         1 DIQ      -0.069400
     11 C7          18.0030     3.8510    10.5230 c6         1 DIQ      -0.067400
     12 C7A         19.0660     4.2180    11.5600 c6         1 DIQ      -0.042700
     13 C8          20.0660     3.0950    11.7930 c6         1 DIQ       0.167800
     14 OXT         18.4100     1.0570    15.7110 o          1 DIQ      -0.830800
     15 HM1         20.8230     0.6370    11.5250 h1         1 DIQ       0.018700
     16 HM2         21.3160     1.1370    13.1480 h1         1 DIQ       0.018700
     17 HM3         20.0010    -0.0310    12.9280 h1         1 DIQ       0.018700
     18 H2          19.7610     2.6510    14.3970 h1         1 DIQ       0.005700
     19 H31         17.0260     3.0100    13.1070 hc         1 DIQ       0.048700
     20 H32         17.5740     3.6910    14.6270 hc         1 DIQ       0.048700
     21 H3A         19.2500     5.0480    13.5190 hc         1 DIQ       0.031700
     22 H41         16.9070     5.9440    13.6660 hc         1 DIQ       0.023200
     23 H42         17.8800     6.6430    12.3880 hc         1 DIQ       0.023200
     24 H51         15.7330     4.5030    12.0180 hc         1 DIQ       0.033200
     25 H52         15.6380     6.1770    11.5240 hc         1 DIQ       0.033200
     26 H61         16.2350     4.6930     9.6030 hc         1 DIQ       0.020200
     27 H62         17.5040     5.8590     9.9360 hc         1 DIQ       0.020200
     28 H71         17.4840     2.9370    10.8220 hc         1 DIQ       0.050200
     29 H72         18.4940     3.6250     9.5710 hc         1 DIQ       0.050200
     30 H7A         19.6280     5.0740    11.1650 hc         1 DIQ       0.014700
     31 H81         20.9120     3.4880    12.3900 h1         1 DIQ       0.006200
     32 H82         20.4890     2.7760    10.8350 h1         1 DIQ       0.006200
@<TRIPOS>BOND
     1     1     2 1   
     2     1     3 1   
     3     1    13 1   
     4     2    15 1   
     5     2    16 1   
     6     2    17 1   
     7     3     4 1   
     8     3     6 1   
     9     3    18 1   
    10     4     5 1   
    11     4    14 1   
    12     6     7 1   
    13     6    19 1   
    14     6    20 1   
    15     7     8 1   
    16     7    12 1   
    17     7    21 1   
    18     8     9 1   
    19     8    22 1   
    20     8    23 1   
    21     9    10 1   
    22     9    24 1   
    23     9    25 1   
    24    10    11 1   
    25    10    26 1   
    26    10    27 1   
    27    11    12 1   
    28    11    28 1   
    29    11    29 1   
    30    12    13 1   
    31    12    30 1   
    32    13    31 1   
    33    13    32 1   
@<TRIPOS>SUBSTRUCTURE
     1 DIQ         1 TEMP              0 ****  ****    0 ROOT
