@<TRIPOS>MOLECULE
DIR
   20    19     1     0     0
SMALL
No Charge or Current Charge


@<TRIPOS>ATOM
      1 CA          -5.1200    47.7000     9.9720 c3         1 DIR       0.010500
      2 CB          -4.1650    46.5700     9.5020 c3         1 DIR       0.227800
      3 N           -5.3140    48.7550     8.8930 n8         1 DIR      -0.889800
      4 C           -4.6550    48.1880    11.4080 c          1 DIR       0.931600
      5 NG          -4.3200    45.3460    10.3020 nu         1 DIR      -0.828200
      6 CD          -3.5840    44.2360    10.1350 c2         1 DIR       0.768100
      7 OXT         -3.8400    49.1030    11.5000 o          1 DIR      -0.833800
      8 O           -5.2100    47.7090    12.3920 o          1 DIR      -0.833800
      9 NH1         -2.7030    44.0780     9.2140 n2         1 DIR      -0.611200
     10 NH2         -3.9440    43.3980    11.1130 nv         1 DIR      -0.924800
     11 OH1         -2.0300    42.8250     9.2240 oh         1 DIR      -0.423500
     12 HA          -6.1150    47.2520    10.1040 h1         1 DIR       0.007700
     13 HB2         -4.3840    46.3330     8.4520 h1         1 DIR       0.032200
     14 HB3         -3.1280    46.9280     9.5530 h1         1 DIR       0.032200
     15 H           -5.9980    49.4490     9.2140 hn         1 DIR       0.330800
     16 H2          -5.7480    48.3280     8.0680 hn         1 DIR       0.330800
     17 HG          -4.6690    45.4470    11.2470 hn         1 DIR       0.470800
     18 HH21        -3.4330    42.5300    11.0220 hn         1 DIR       0.398800
     19 HH22        -4.9440    43.2790    11.1750 hn         1 DIR       0.398800
     20 HH1         -1.3920    42.8520     8.4710 ho         1 DIR       0.404000
@<TRIPOS>BOND
     1     1     2 1   
     2     1     3 1   
     3     1     4 1   
     4     1    12 1   
     5     2     5 1   
     6     2    13 1   
     7     2    14 1   
     8     3    15 1   
     9     3    16 1   
    10     4     7 1   
    11     4     8 1   
    12     5     6 1   
    13     5    17 1   
    14     6     9 2   
    15     6    10 1   
    16     9    11 1   
    17    10    18 1   
    18    10    19 1   
    19    11    20 1   
@<TRIPOS>SUBSTRUCTURE
     1 DIR         1 TEMP              0 ****  ****    0 ROOT
