@<TRIPOS>MOLECULE
DIR
   20    19     1     0     0
SMALL
bcc


@<TRIPOS>ATOM
      1 CA          -5.1340    47.6450     9.8990 c3         1 DIR       0.010500
      2 CB          -4.1410    46.5320     9.5620 c3         1 DIR       0.227800
      3 N           -5.0030    48.6880     8.8940 n8         1 DIR      -0.889800
      4 C           -4.9380    48.2210    11.3250 c          1 DIR       0.931600
      5 NG          -4.3640    45.3670    10.3880 nu         1 DIR      -0.828200
      6 CD          -3.6140    44.2380    10.1980 c2         1 DIR       0.768100
      7 OXT         -5.0750    49.4470    11.4710 o          1 DIR      -0.833800
      8 O           -4.6960    47.3900    12.2320 o          1 DIR      -0.833800
      9 NH1         -2.8470    44.1490     9.1660 n2         1 DIR      -0.611200
     10 NH2         -3.7430    43.2830    11.1760 nv         1 DIR      -0.924800
     11 OH1         -2.2440    42.8800     9.1110 oh         1 DIR      -0.423500
     12 HA          -6.1390    47.1880     9.9020 h1         1 DIR       0.007700
     13 HB2         -4.2720    46.2540     8.5140 h1         1 DIR       0.032200
     14 HB3         -3.1160    46.9180     9.6530 h1         1 DIR       0.032200
     15 H           -5.4210    49.5350     9.2550 hn         1 DIR       0.330800
     16 H2          -5.5210    48.4310     8.0640 hn         1 DIR       0.330800
     17 HG          -4.4830    45.6540    11.3570 hn         1 DIR       0.470800
     18 HH21        -3.4370    42.3590    10.9180 hn         1 DIR       0.398800
     19 HH22        -4.6300    43.2770    11.6530 hn         1 DIR       0.398800
     20 HH1         -1.8780    42.8510     8.2240 ho         1 DIR       0.404000
@<TRIPOS>BOND
     1     1     2 1   
     2     1     3 1   
     3     1     4 1   
     4     1    12 1   
     5     2     5 1   
     6     2    13 1   
     7     2    14 1   
     8     3    15 1   
     9     3    16 1   
    10     4     7 1   
    11     4     8 1   
    12     5     6 1   
    13     5    17 1   
    14     6     9 2   
    15     6    10 1   
    16     9    11 1   
    17    10    18 1   
    18    10    19 1   
    19    11    20 1   
@<TRIPOS>SUBSTRUCTURE
     1 DIR         1 TEMP              0 ****  ****    0 ROOT
