@<TRIPOS>MOLECULE
DIS
    3     2     1     0     0
SMALL
No Charge or Current Charge


@<TRIPOS>ATOM
      1 O           -0.0680    -0.0090     0.0370 oh         1 DIS      -0.864000
      2 H1           0.5440    -0.0280    -0.7330 ho         1 DIS       0.432000
      3 H2           0.5450    -0.0110     0.8070 ho         1 DIS       0.432000
@<TRIPOS>BOND
     1     1     2 1   
     2     1     3 1   
@<TRIPOS>SUBSTRUCTURE
     1 DIS         1 TEMP              0 ****  ****    0 ROOT
