@<TRIPOS>MOLECULE
DIS
    3     2     1     0     0
SMALL
bcc


@<TRIPOS>ATOM
      1 O           -0.0540    -0.0090     0.0370 oh         1 DIS      -0.786000
      2 H1           0.5370    -0.0280    -0.7180 ho         1 DIS       0.393000
      3 H2           0.5380    -0.0110     0.7930 ho         1 DIS       0.393000
@<TRIPOS>BOND
     1     1     2 1   
     2     1     3 1   
@<TRIPOS>SUBSTRUCTURE
     1 DIS         1 TEMP              0 ****  ****    0 ROOT
