@<TRIPOS>MOLECULE
DIT
  104   113     1     0     0
SMALL
abcg2


@<TRIPOS>ATOM
      1 C1          -7.6490     0.4180    -1.1040 ca         1 DIT      -0.031500
      2 N2          -6.9900     1.2510    -1.8950 na         1 DIT       0.064300
      3 C3          -7.6310     2.2120    -2.6070 ca         1 DIT      -0.083800
      4 C4          -8.9830     2.3340    -2.5270 ca         1 DIT      -0.072000
      5 C5         -11.1400     1.5890    -1.5980 ca         1 DIT      -0.098000
      6 C6         -11.8520     0.7540    -0.7880 ca         1 DIT      -0.039000
      7 N7         -11.6820    -1.1490     0.7930 na         1 DIT      -0.180100
      8 C8         -10.7310    -2.9810     2.1940 ca         1 DIT      -0.075000
      9 C9          -9.5530    -3.6100     2.5470 ca         1 DIT      -0.139000
     10 C10         -8.3210    -3.1940     2.0100 ca         1 DIT       0.144100
     11 O10         -7.1410    -3.7730     2.3190 os         1 DIT      -0.344600
     12 C11         -8.2640    -2.1390     1.1120 ca         1 DIT      -0.124000
     13 C12         -9.7310     1.4750    -1.7030 ca         1 DIT       0.002500
     14 C13        -11.1620    -0.2330    -0.0580 ca         1 DIT      -0.000200
     15 C14        -10.6700    -1.9250     1.2950 ca         1 DIT      -0.044700
     16 C15         -9.4450    -1.4910     0.7450 cp         1 DIT      -0.048500
     17 C16         -9.7720    -0.3960    -0.1270 cp         1 DIT      -0.089000
     18 C17         -9.0350     0.4770    -0.9640 ca         1 DIT      -0.010000
     19 C18         -7.1250    -4.8350     3.2520 c3         1 DIT       0.142900
     20 C19         -5.5220     1.1970    -1.9410 c3         1 DIT       0.026600
     21 C20         -4.9340     2.1110    -0.8680 c3         1 DIT       0.154800
     22 N21         -3.4920     2.0970    -0.9150 n3         1 DIT      -0.722100
     23 C22         -2.9250     3.2970    -0.3240 c6         1 DIT       0.166550
     24 C23         -1.4150     3.3380    -0.4870 c6         1 DIT      -0.073400
     25 C24         -0.7410     2.1040     0.1130 c6         1 DIT      -0.055200
     26 C25         -1.4140     0.8610    -0.4680 c6         1 DIT      -0.073400
     27 C26         -2.9240     0.9070    -0.3010 c6         1 DIT       0.166550
     28 C1X          7.6730     0.4400     1.1160 ca         1 DIT      -0.031500
     29 N2X          7.0280     1.2770     1.9150 na         1 DIT       0.064300
     30 C3X          7.6840     2.2290     2.6250 ca         1 DIT      -0.083800
     31 C4X          9.0360     2.3380     2.5370 ca         1 DIT      -0.072000
     32 C5X         11.1800     1.5730     1.5910 ca         1 DIT      -0.098000
     33 C6X         11.8770     0.7330     0.7740 ca         1 DIT      -0.039000
     34 N7X         11.6770    -1.1630    -0.8130 na         1 DIT      -0.180100
     35 C8X         10.6980    -2.9780    -2.2150 ca         1 DIT      -0.075000
     36 C9X          9.5110    -3.5940    -2.5630 ca         1 DIT      -0.139000
     37 CAX          8.2870    -3.1680    -2.0150 ca         1 DIT       0.144100
     38 OAX          7.0990    -3.7340    -2.3180 os         1 DIT      -0.344600
     39 CBX          8.2470    -2.1160    -1.1120 ca         1 DIT      -0.124000
     40 CCX          9.7700     1.4730     1.7060 ca         1 DIT       0.002500
     41 CDX         11.1720    -0.2440     0.0440 ca         1 DIT      -0.000200
     42 CEX         10.6540    -1.9260    -1.3120 ca         1 DIT      -0.044700
     43 CFX          9.4370    -1.4810    -0.7510 cp         1 DIT      -0.048500
     44 CGX          9.7810    -0.3940     0.1220 cp         1 DIT      -0.089000
     45 CHX          9.0590     0.4840     0.9680 ca         1 DIT      -0.010000
     46 CIX          7.0660    -4.7930    -3.2530 c3         1 DIT       0.142900
     47 CJX          5.5600     1.2340     1.9720 c3         1 DIT       0.026600
     48 NLX          3.5280     2.1240     0.9430 n3         1 DIT      -0.722100
     49 CMX          2.9540     3.3170     0.3440 c6         1 DIT       0.166550
     50 CNX          1.4430     3.3490     0.5000 c6         1 DIT      -0.073400
     51 COX          0.7780     2.1080    -0.0970 c6         1 DIT      -0.055200
     52 CPX          1.4580     0.8730     0.4910 c6         1 DIT      -0.073400
     53 CQX          2.9690     0.9290     0.3330 c6         1 DIT       0.166550
     54 H1          -7.0460    -0.3070    -0.5800 h4         1 DIT       0.175000
     55 H3          -7.0130     2.8490    -3.2210 h4         1 DIT       0.177000
     56 H4          -9.4750     3.1050    -3.1040 ha         1 DIT       0.166000
     57 H5         -11.6470     2.3560    -2.1680 ha         1 DIT       0.147000
     58 H6         -12.9270     0.8460    -0.7060 ha         1 DIT       0.148000
     59 HN7        -12.6590    -1.2410     1.0230 hn         1 DIT       0.377000
     60 H8         -11.6730    -3.3080     2.6130 ha         1 DIT       0.137000
     61 H9          -9.6030    -4.4320     3.2480 ha         1 DIT       0.138000
     62 H11         -7.2990    -1.8490     0.7200 ha         1 DIT       0.115000
     63 H181        -7.5020    -4.5290     4.2310 h1         1 DIT       0.050867
     64 H182        -7.7030    -5.6960     2.9050 h1         1 DIT       0.050867
     65 H183        -6.0850    -5.1360     3.3570 h1         1 DIT       0.050867
     66 H191        -5.2270     0.1580    -1.8110 h1         1 DIT       0.096200
     67 H192        -5.2040     1.5150    -2.9310 h1         1 DIT       0.096200
     68 H201        -5.2800     3.1290    -1.0640 h1         1 DIT       0.048700
     69 H202        -5.3330     1.8270     0.1210 h1         1 DIT       0.048700
     70 H221        -3.3680     4.1690    -0.8100 h1         1 DIT       0.035700
     71 H222        -3.1730     3.3720     0.7500 h1         1 DIT       0.035700
     72 H231        -1.1670     3.4080    -1.5520 hc         1 DIT       0.054825
     73 H232        -1.0520     4.2540    -0.0170 hc         1 DIT       0.054825
     74 H24         -0.9310     2.1120     1.1970 hc         1 DIT       0.050700
     75 H251        -1.1690     0.7730    -1.5320 hc         1 DIT       0.054825
     76 H252        -1.0500    -0.0470     0.0170 hc         1 DIT       0.054825
     77 H261        -3.1740     0.8620     0.7740 h1         1 DIT       0.035700
     78 H262        -3.3600     0.0160    -0.7570 h1         1 DIT       0.035700
     79 H3X          7.0770     2.8710     3.2450 h4         1 DIT       0.177000
     80 H4X          9.5400     3.1020     3.1120 ha         1 DIT       0.166000
     81 H5X         11.6980     2.3320     2.1620 ha         1 DIT       0.147000
     82 H6X         12.9530     0.8140     0.6850 ha         1 DIT       0.148000
     83 HN7X        12.6510    -1.2620    -1.0520 hn         1 DIT       0.377000
     84 H8X         11.6330    -3.3130    -2.6420 ha         1 DIT       0.137000
     85 H9X          9.5470    -4.4130    -3.2670 ha         1 DIT       0.138000
     86 H11X         7.2880    -1.8190    -0.7110 ha         1 DIT       0.115000
     87 HX81         6.0230    -5.0840    -3.3520 h1         1 DIT       0.050867
     88 HX82         7.4400    -4.4890    -4.2340 h1         1 DIT       0.050867
     89 HX83         7.6380    -5.6610    -2.9120 h1         1 DIT       0.050867
     90 HX91         5.2520     1.5590     2.9630 h1         1 DIT       0.096200
     91 HX92         5.2570     0.1960     1.8500 h1         1 DIT       0.096200
     92 HX21         3.2070     3.3890    -0.7290 h1         1 DIT       0.035700
     93 HX22         3.3890     4.1950     0.8280 h1         1 DIT       0.035700
     94 HX31         1.0770     4.2600     0.0240 hc         1 DIT       0.054825
     95 HX32         1.1910     3.4220     1.5630 hc         1 DIT       0.054825
     96 H24X         0.9700     2.1120    -1.1800 hc         1 DIT       0.050700
     97 HX51         1.2080     0.7870     1.5550 hc         1 DIT       0.054825
     98 HX52         1.1120    -0.0430     0.0110 hc         1 DIT       0.054825
     99 HX61         3.2240     0.8810    -0.7410 h1         1 DIT       0.035700
    100 HX62         3.4070     0.0420     0.7930 h1         1 DIT       0.035700
    101 CKX          4.9700     2.1460     0.8980 c3         1 DIT       0.154800
    102 H1X          7.0590    -0.2790     0.5950 h4         1 DIT       0.175000
    103 HX01         5.3710     1.8630    -0.0900 h1         1 DIT       0.048700
    104 HX02         5.3110     3.1650     1.0940 h1         1 DIT       0.048700
@<TRIPOS>BOND
     1     1     2 1   
     2     1    18 ar  
     3     1    54 1   
     4     2     3 2   
     5     2    20 1   
     6     3     4 ar  
     7     3    55 1   
     8     4    13 ar  
     9     4    56 1   
    10     5     6 ar  
    11     5    13 ar  
    12     5    57 1   
    13     6    14 ar  
    14     6    58 1   
    15     7    14 1   
    16     7    15 1   
    17     7    59 1   
    18     8     9 ar  
    19     8    15 ar  
    20     8    60 1   
    21     9    10 ar  
    22     9    61 1   
    23    10    11 1   
    24    10    12 ar  
    25    11    19 1   
    26    12    16 ar  
    27    12    62 1   
    28    13    18 ar  
    29    14    17 ar  
    30    15    16 ar  
    31    16    17 1   
    32    17    18 ar  
    33    19    63 1   
    34    19    64 1   
    35    19    65 1   
    36    20    21 1   
    37    20    66 1   
    38    20    67 1   
    39    21    22 1   
    40    21    68 1   
    41    21    69 1   
    42    22    23 1   
    43    22    27 1   
    44    23    24 1   
    45    23    70 1   
    46    23    71 1   
    47    24    25 1   
    48    24    72 1   
    49    24    73 1   
    50    25    26 1   
    51    25    51 1   
    52    25    74 1   
    53    26    27 1   
    54    26    75 1   
    55    26    76 1   
    56    27    77 1   
    57    27    78 1   
    58    28    29 1   
    59    28    45 ar  
    60    28   102 1   
    61    29    30 2   
    62    29    47 1   
    63    30    31 ar  
    64    30    79 1   
    65    31    40 ar  
    66    31    80 1   
    67    32    33 ar  
    68    32    40 ar  
    69    32    81 1   
    70    33    41 ar  
    71    33    82 1   
    72    34    41 1   
    73    34    42 1   
    74    34    83 1   
    75    35    36 ar  
    76    35    42 ar  
    77    35    84 1   
    78    36    37 ar  
    79    36    85 1   
    80    37    38 1   
    81    37    39 ar  
    82    38    46 1   
    83    39    43 ar  
    84    39    86 1   
    85    40    45 ar  
    86    41    44 ar  
    87    42    43 ar  
    88    43    44 1   
    89    44    45 ar  
    90    46    87 1   
    91    46    88 1   
    92    46    89 1   
    93    47    90 1   
    94    47    91 1   
    95    47   101 1   
    96    48    49 1   
    97    48    53 1   
    98    48   101 1   
    99    49    50 1   
   100    49    92 1   
   101    49    93 1   
   102    50    51 1   
   103    50    94 1   
   104    50    95 1   
   105    51    52 1   
   106    51    96 1   
   107    52    53 1   
   108    52    97 1   
   109    52    98 1   
   110    53    99 1   
   111    53   100 1   
   112   101   103 1   
   113   101   104 1   
@<TRIPOS>SUBSTRUCTURE
     1 DIT         1 TEMP              0 ****  ****    0 ROOT
