@<TRIPOS>MOLECULE
DIT
  104   113     1     0     0
SMALL
No Charge or Current Charge


@<TRIPOS>ATOM
      1 C1          -7.9710     0.1820    -1.1120 ca         1 DIT      -0.031500
      2 N2          -7.1390     0.7320    -2.0900 na         1 DIT       0.064300
      3 C3          -7.7050     1.4500    -3.1420 ca         1 DIT      -0.083800
      4 C4          -9.0960     1.6220    -3.2280 ca         1 DIT      -0.072000
      5 C5         -11.3370     1.2540    -2.3520 ca         1 DIT      -0.098000
      6 C6         -12.2060     0.7160    -1.3880 ca         1 DIT      -0.039000
      7 N7         -12.2610    -0.6310     0.7460 na         1 DIT      -0.180100
      8 C8         -11.5550    -1.9710     2.7710 ca         1 DIT      -0.075000
      9 C9         -10.4260    -2.4870     3.4370 ca         1 DIT      -0.139000
     10 C10         -9.1220    -2.2660     2.9150 ca         1 DIT       0.144100
     11 O10         -7.9880    -2.7520     3.5340 os         1 DIT      -0.344600
     12 C11         -8.9450    -1.5280     1.7240 ca         1 DIT      -0.124000
     13 C12         -9.9380     1.0680    -2.2450 ca         1 DIT       0.002500
     14 C13        -11.6350     0.0000    -0.3340 ca         1 DIT      -0.000200
     15 C14        -11.3390    -1.2460     1.5960 ca         1 DIT      -0.044700
     16 C15        -10.0760    -1.0070     1.0500 cp         1 DIT      -0.048500
     17 C16        -10.2590    -0.2100    -0.1850 cp         1 DIT      -0.089000
     18 C17         -9.3740     0.3330    -1.1620 ca         1 DIT      -0.010000
     19 C18         -8.0430    -3.5170     4.7520 c3         1 DIT       0.142900
     20 C19         -5.6760     0.5860    -1.9900 c3         1 DIT       0.026600
     21 C20         -5.0260     1.6870    -1.1230 c3         1 DIT       0.154800
     22 N21         -3.5410     1.6560    -1.0920 n3         1 DIT      -0.722100
     23 C22         -2.9790     2.8740    -0.4510 c6         1 DIT       0.166550
     24 C23         -1.4360     2.9150    -0.5450 c6         1 DIT      -0.073400
     25 C24         -0.7750     1.6530     0.0880 c6         1 DIT      -0.055200
     26 C25         -1.4360     0.3920    -0.5480 c6         1 DIT      -0.073400
     27 C26         -2.9810     0.4300    -0.4590 c6         1 DIT       0.166550
     28 C1X          7.9870     0.1780     1.1200 ca         1 DIT      -0.031500
     29 N2X          7.1560     0.7250     2.1010 na         1 DIT       0.064300
     30 C3X          7.7250     1.4400     3.1550 ca         1 DIT      -0.083800
     31 C4X          9.1160     1.6110     3.2390 ca         1 DIT      -0.072000
     32 C5X         11.3550     1.2460     2.3580 ca         1 DIT      -0.098000
     33 C6X         12.2230     0.7110     1.3900 ca         1 DIT      -0.039000
     34 N7X         12.2740    -0.6290    -0.7480 na         1 DIT      -0.180100
     35 C8X         11.5640    -1.9620    -2.7770 ca         1 DIT      -0.075000
     36 C9X         10.4340    -2.4750    -3.4420 ca         1 DIT      -0.139000
     37 CAX          9.1310    -2.2560    -2.9170 ca         1 DIT       0.144100
     38 OAX          7.9950    -2.7400    -3.5360 os         1 DIT      -0.344600
     39 CBX          8.9560    -1.5220    -1.7230 ca         1 DIT      -0.124000
     40 CCX          9.9560     1.0590     2.2520 ca         1 DIT       0.002500
     41 CDX         11.6490    -0.0020     0.3350 ca         1 DIT      -0.000200
     42 CEX         11.3500    -1.2410    -1.5990 ca         1 DIT      -0.044700
     43 CFX         10.0880    -1.0040    -1.0500 cp         1 DIT      -0.048500
     44 CGX         10.2730    -0.2120     0.1880 cp         1 DIT      -0.089000
     45 CHX          9.3900     0.3290     1.1680 ca         1 DIT      -0.010000
     46 CIX          8.0480    -3.5020    -4.7570 c3         1 DIT       0.142900
     47 CJX          5.6930     0.5800     2.0030 c3         1 DIT       0.026600
     48 NLX          3.5580     1.6530     1.1100 n3         1 DIT      -0.722100
     49 CMX          2.9960     2.8720     0.4720 c6         1 DIT       0.166550
     50 CNX          1.4530     2.9130     0.5670 c6         1 DIT      -0.073400
     51 COX          0.7920     1.6530    -0.0700 c6         1 DIT      -0.055200
     52 CPX          1.4530     0.3910     0.5630 c6         1 DIT      -0.073400
     53 CQX          2.9970     0.4280     0.4730 c6         1 DIT       0.166550
     54 H1          -7.4760    -0.3610    -0.3180 h4         1 DIT       0.175000
     55 H3          -7.0360     1.8750    -3.8920 h4         1 DIT       0.177000
     56 H4          -9.5170     2.1860    -4.0580 ha         1 DIT       0.166000
     57 H5         -11.7520     1.8180    -3.1850 ha         1 DIT       0.147000
     58 H6         -13.2830     0.8530    -1.4600 ha         1 DIT       0.148000
     59 HN7        -13.2650    -0.6400     0.8940 hn         1 DIT       0.377000
     60 H8         -12.5590    -2.1310     3.1590 ha         1 DIT       0.137000
     61 H9         -10.5780    -3.0520     4.3520 ha         1 DIT       0.138000
     62 H11         -7.9380    -1.3820     1.3610 ha         1 DIT       0.115000
     63 H181        -8.4980    -2.9320     5.5610 h1         1 DIT       0.050867
     64 H182        -8.6240    -4.4370     4.6110 h1         1 DIT       0.050867
     65 H183        -7.0310    -3.8020     5.0690 h1         1 DIT       0.050867
     66 H191        -5.4510    -0.4010    -1.5720 h1         1 DIT       0.096200
     67 H192        -5.2430     0.6240    -2.9970 h1         1 DIT       0.096200
     68 H201        -5.3580     2.6550    -1.5230 h1         1 DIT       0.048700
     69 H202        -5.4250     1.6130    -0.1020 h1         1 DIT       0.048700
     70 H221        -3.3800     3.7770    -0.9350 h1         1 DIT       0.035700
     71 H222        -3.2760     2.9180     0.6070 h1         1 DIT       0.035700
     72 H231        -1.1390     3.0070    -1.5990 hc         1 DIT       0.054825
     73 H232        -1.0970     3.8280    -0.0410 hc         1 DIT       0.054825
     74 H24         -1.0120     1.6510     1.1620 hc         1 DIT       0.050700
     75 H251        -1.1370     0.3030    -1.6020 hc         1 DIT       0.054825
     76 H252        -1.0980    -0.5220    -0.0450 hc         1 DIT       0.054825
     77 H261        -3.2810     0.3770     0.5980 h1         1 DIT       0.035700
     78 H262        -3.3670    -0.4750    -0.9500 h1         1 DIT       0.035700
     79 H3X          7.0570     1.8620     3.9070 h4         1 DIT       0.177000
     80 H4X          9.5390     2.1720     4.0700 ha         1 DIT       0.166000
     81 H5X         11.7720     1.8060     3.1920 ha         1 DIT       0.147000
     82 H6X         13.3000     0.8470     1.4610 ha         1 DIT       0.148000
     83 HN7X        13.2770    -0.6380    -0.8980 hn         1 DIT       0.377000
     84 H8X         12.5680    -2.1220    -3.1670 ha         1 DIT       0.137000
     85 H9X         10.5840    -3.0380    -4.3590 ha         1 DIT       0.138000
     86 H11X         7.9500    -1.3780    -1.3580 ha         1 DIT       0.115000
     87 HX81         7.0360    -3.7850    -5.0720 h1         1 DIT       0.050867
     88 HX82         8.5030    -2.9140    -5.5650 h1         1 DIT       0.050867
     89 HX83         8.6300    -4.4220    -4.6190 h1         1 DIT       0.050867
     90 HX91         5.2620     0.6160     3.0110 h1         1 DIT       0.096200
     91 HX92         5.4680    -0.4070     1.5830 h1         1 DIT       0.096200
     92 HX21         3.2920     2.9190    -0.5870 h1         1 DIT       0.035700
     93 HX22         3.3970     3.7740     0.9580 h1         1 DIT       0.035700
     94 HX31         1.1140     3.8270     0.0650 hc         1 DIT       0.054825
     95 HX32         1.1560     3.0020     1.6210 hc         1 DIT       0.054825
     96 H24X         1.0280     1.6540    -1.1440 hc         1 DIT       0.050700
     97 HX51         1.1530     0.2980     1.6160 hc         1 DIT       0.054825
     98 HX52         1.1140    -0.5220     0.0580 hc         1 DIT       0.054825
     99 HX61         3.2960     0.3780    -0.5840 h1         1 DIT       0.035700
    100 HX62         3.3830    -0.4780     0.9610 h1         1 DIT       0.035700
    101 CKX          5.0430     1.6830     1.1390 c3         1 DIT       0.154800
    102 H1X          7.4900    -0.3630     0.3250 h4         1 DIT       0.175000
    103 HX01         5.4410     1.6120     0.1170 h1         1 DIT       0.048700
    104 HX02         5.3750     2.6500     1.5420 h1         1 DIT       0.048700
@<TRIPOS>BOND
     1     1     2 1   
     2     1    18 ar  
     3     1    54 1   
     4     2     3 2   
     5     2    20 1   
     6     3     4 ar  
     7     3    55 1   
     8     4    13 ar  
     9     4    56 1   
    10     5     6 ar  
    11     5    13 ar  
    12     5    57 1   
    13     6    14 ar  
    14     6    58 1   
    15     7    14 1   
    16     7    15 1   
    17     7    59 1   
    18     8     9 ar  
    19     8    15 ar  
    20     8    60 1   
    21     9    10 ar  
    22     9    61 1   
    23    10    11 1   
    24    10    12 ar  
    25    11    19 1   
    26    12    16 ar  
    27    12    62 1   
    28    13    18 ar  
    29    14    17 ar  
    30    15    16 ar  
    31    16    17 1   
    32    17    18 ar  
    33    19    63 1   
    34    19    64 1   
    35    19    65 1   
    36    20    21 1   
    37    20    66 1   
    38    20    67 1   
    39    21    22 1   
    40    21    68 1   
    41    21    69 1   
    42    22    23 1   
    43    22    27 1   
    44    23    24 1   
    45    23    70 1   
    46    23    71 1   
    47    24    25 1   
    48    24    72 1   
    49    24    73 1   
    50    25    26 1   
    51    25    51 1   
    52    25    74 1   
    53    26    27 1   
    54    26    75 1   
    55    26    76 1   
    56    27    77 1   
    57    27    78 1   
    58    28    29 1   
    59    28    45 ar  
    60    28   102 1   
    61    29    30 2   
    62    29    47 1   
    63    30    31 ar  
    64    30    79 1   
    65    31    40 ar  
    66    31    80 1   
    67    32    33 ar  
    68    32    40 ar  
    69    32    81 1   
    70    33    41 ar  
    71    33    82 1   
    72    34    41 1   
    73    34    42 1   
    74    34    83 1   
    75    35    36 ar  
    76    35    42 ar  
    77    35    84 1   
    78    36    37 ar  
    79    36    85 1   
    80    37    38 1   
    81    37    39 ar  
    82    38    46 1   
    83    39    43 ar  
    84    39    86 1   
    85    40    45 ar  
    86    41    44 ar  
    87    42    43 ar  
    88    43    44 1   
    89    44    45 ar  
    90    46    87 1   
    91    46    88 1   
    92    46    89 1   
    93    47    90 1   
    94    47    91 1   
    95    47   101 1   
    96    48    49 1   
    97    48    53 1   
    98    48   101 1   
    99    49    50 1   
   100    49    92 1   
   101    49    93 1   
   102    50    51 1   
   103    50    94 1   
   104    50    95 1   
   105    51    52 1   
   106    51    96 1   
   107    52    53 1   
   108    52    97 1   
   109    52    98 1   
   110    53    99 1   
   111    53   100 1   
   112   101   103 1   
   113   101   104 1   
@<TRIPOS>SUBSTRUCTURE
     1 DIT         1 TEMP              0 ****  ****    0 ROOT
