@<TRIPOS>MOLECULE
DIU
   15    15     1     0     0
SMALL
No Charge or Current Charge


@<TRIPOS>ATOM
      1 C           34.3860    13.9150    11.2940 c          1 DIU       0.722600
      2 O1          33.5540    14.4190    12.0350 o          1 DIU      -0.701000
      3 O2          34.8070    12.7750    11.4240 o          1 DIU      -0.701000
      4 O3          32.9320    15.1590     9.1210 oh         1 DIU      -0.492100
      5 C1          35.0340    14.7800    10.2550 ca         1 DIU      -0.134600
      6 C2          34.2810    15.3770     9.2220 ca         1 DIU       0.190100
      7 C3          34.9260    16.1890     8.2630 ca         1 DIU       0.102000
      8 C4          36.3120    16.4030     8.3280 ca         1 DIU      -0.055000
      9 C5          37.0610    15.8030     9.3510 ca         1 DIU       0.166000
     10 C6          36.4290    14.9940    10.3080 ca         1 DIU      -0.033000
     11 I1          33.7830    17.1150     6.6570 i          1 DIU      -0.386000
     12 I2          39.2040    16.1250     9.4520 i          1 DIU      -0.379000
     13 H3          32.6040    15.6590     8.3430 ho         1 DIU       0.448000
     14 H4          36.8040    17.0270     7.5880 ha         1 DIU       0.116000
     15 H6          37.0210    14.5350    11.0960 ha         1 DIU       0.136000
@<TRIPOS>BOND
     1     1     2 1   
     2     1     3 1   
     3     1     5 1   
     4     4     6 1   
     5     4    13 1   
     6     5     6 ar  
     7     5    10 ar  
     8     6     7 ar  
     9     7     8 ar  
    10     7    11 1   
    11     8     9 ar  
    12     8    14 1   
    13     9    10 ar  
    14     9    12 1   
    15    10    15 1   
@<TRIPOS>SUBSTRUCTURE
     1 DIU         1 TEMP              0 ****  ****    0 ROOT
