@<TRIPOS>MOLECULE
DIU
   15    15     1     0     0
SMALL
abcg2


@<TRIPOS>ATOM
      1 C           34.3790    13.9300    11.2950 c          1 DIU       0.722600
      2 O1          33.6720    14.5340    12.1340 o          1 DIU      -0.701000
      3 O2          34.6150    12.7020    11.2330 o          1 DIU      -0.701000
      4 O3          32.9750    15.1220     9.1710 oh         1 DIU      -0.492100
      5 C1          35.0560    14.7990    10.2330 ca         1 DIU      -0.134600
      6 C2          34.3060    15.3820     9.2020 ca         1 DIU       0.190100
      7 C3          34.9600    16.1810     8.2600 ca         1 DIU       0.102000
      8 C4          36.3300    16.4150     8.3240 ca         1 DIU      -0.055000
      9 C5          37.0510    15.8250     9.3510 ca         1 DIU       0.166000
     10 C6          36.4270    15.0170    10.2940 ca         1 DIU      -0.033000
     11 I1          33.8480    17.0620     6.6860 i          1 DIU      -0.386000
     12 I2          39.1390    16.1570     9.4760 i          1 DIU      -0.379000
     13 H3          32.5660    15.5610     8.4080 ho         1 DIU       0.448000
     14 H4          36.8130    17.0380     7.5860 ha         1 DIU       0.116000
     15 H6          37.0000    14.5510    11.0840 ha         1 DIU       0.136000
@<TRIPOS>BOND
     1     1     2 1   
     2     1     3 1   
     3     1     5 1   
     4     4     6 1   
     5     4    13 1   
     6     5     6 ar  
     7     5    10 ar  
     8     6     7 ar  
     9     7     8 ar  
    10     7    11 1   
    11     8     9 ar  
    12     8    14 1   
    13     9    10 ar  
    14     9    12 1   
    15    10    15 1   
@<TRIPOS>SUBSTRUCTURE
     1 DIU         1 TEMP              0 ****  ****    0 ROOT
