@<TRIPOS>MOLECULE
DIW
   60    63     1     0     0
SMALL
No Charge or Current Charge


@<TRIPOS>ATOM
      1 C            8.0660    -0.2810    -1.1930 ca         1 DIW      -0.125000
      2 C2           6.2740    -1.3520     0.0670 ca         1 DIW      -0.135300
      3 C3           6.7490    -0.2950    -0.7040 ca         1 DIW      -0.000200
      4 N7           5.7280     0.6460    -0.8720 nh         1 DIW      -0.201500
      5 C8           4.5620     0.2230    -0.2390 ce         1 DIW       0.372600
      6 C9           4.8120    -1.1350     0.4600 c5         1 DIW      -0.061000
      7 C10          3.2820     0.9630    -0.3090 ce         1 DIW      -0.462600
      8 C11          2.1060     0.6560     0.3030 cf         1 DIW       0.018000
      9 C12          0.9030     1.4680     0.1510 cf         1 DIW      -0.330000
     10 C13         -0.3440     1.2890     0.7100 cc         1 DIW       0.182800
     11 C14         -1.4610     2.2000     0.4490 ca         1 DIW      -0.105800
     12 C15         -2.7420     1.8270     0.9240 ca         1 DIW       0.291000
     13 N16         -2.9910     0.5570     1.5080 na         1 DIW      -0.533200
     14 C17         -1.8860    -0.1040     2.0810 cd         1 DIW       0.093000
     15 C18         -0.6310     0.2050     1.5940 cc         1 DIW      -0.304000
     16 C19         -3.8130     2.7450     0.7770 ca         1 DIW      -0.129000
     17 C20         -3.6370     3.9840     0.1480 ca         1 DIW      -0.038000
     18 C21         -2.3790     4.3390    -0.3390 ca         1 DIW      -0.110000
     19 C22         -1.2970     3.4630    -0.1840 ca         1 DIW      -0.063000
     20 C23         -4.3540    -0.0400     1.5410 c3         1 DIW       0.181800
     21 C24         -4.8990    -0.3960     0.1400 c3         1 DIW      -0.053400
     22 C25         -6.3080    -1.0470     0.1910 c3         1 DIW      -0.362400
     23 S26         -6.9760    -1.4820    -1.4350 s6         1 DIW       1.315600
     24 C27          3.9320    -2.2850    -0.1000 c3         1 DIW      -0.073600
     25 C28          4.6770    -1.0650     2.0040 c3         1 DIW      -0.073600
     26 C29          5.8750     1.8910    -1.6470 c3         1 DIW       0.056900
     27 C30          8.9100    -1.3660    -0.8800 ca         1 DIW      -0.076000
     28 O30         -8.2860    -2.0670    -1.1180 o          1 DIW      -0.680200
     29 C31          8.4320    -2.4370    -0.0940 ca         1 DIW      -0.122000
     30 O31         -7.0360    -0.1970    -2.1440 o          1 DIW      -0.680200
     31 C32          7.1070    -2.4370     0.3850 ca         1 DIW      -0.055000
     32 O32         -5.9950    -2.4360    -1.9730 o          1 DIW      -0.680200
     33 H            8.4380     0.5390    -1.8010 ha         1 DIW       0.126000
     34 H10          3.2950     1.8570    -0.9290 ha         1 DIW       0.190000
     35 H11          2.0510    -0.2300     0.9310 ha         1 DIW       0.168000
     36 H12          1.0170     2.3030    -0.5300 ha         1 DIW       0.191000
     37 H17         -2.0780    -0.9470     2.7440 h4         1 DIW       0.233000
     38 H18          0.1830    -0.4320     1.9120 ha         1 DIW       0.211000
     39 H19         -4.8060     2.5130     1.1450 ha         1 DIW       0.155000
     40 H20         -4.4770     4.6690     0.0420 ha         1 DIW       0.141000
     41 H21         -2.2340     5.3040    -0.8200 ha         1 DIW       0.134000
     42 H22         -0.3350     3.8150    -0.5370 ha         1 DIW       0.128000
     43 H23         -4.3190    -0.9640     2.1330 h1         1 DIW       0.073700
     44 H23A        -5.0510     0.6280     2.0630 h1         1 DIW       0.073700
     45 H24         -4.9370     0.5080    -0.4790 hc         1 DIW       0.068700
     46 H24A        -4.1930    -1.0820    -0.3450 hc         1 DIW       0.068700
     47 H25         -6.2810    -1.9770     0.7690 h1         1 DIW       0.072200
     48 H25A        -7.0320    -0.3610     0.6440 h1         1 DIW       0.072200
     49 H27          4.2320    -3.2540     0.3170 hc         1 DIW       0.048700
     50 H27A         2.8710    -2.1480     0.1300 hc         1 DIW       0.048700
     51 H27B         4.0260    -2.3530    -1.1900 hc         1 DIW       0.048700
     52 H28          5.3030    -0.2630     2.4150 hc         1 DIW       0.048700
     53 H28A         3.6480    -0.8740     2.3260 hc         1 DIW       0.048700
     54 H28B         4.9960    -2.0030     2.4740 hc         1 DIW       0.048700
     55 H29          6.9310     2.1450    -1.7920 h1         1 DIW       0.057367
     56 H29A         5.4010     1.7820    -2.6310 h1         1 DIW       0.057367
     57 H29B         5.4090     2.7280    -1.1140 h1         1 DIW       0.057367
     58 H30          9.9350    -1.3780    -1.2460 ha         1 DIW       0.124000
     59 H31          9.0910    -3.2700     0.1430 ha         1 DIW       0.126000
     60 H32          6.7380    -3.2650     0.9870 ha         1 DIW       0.125000
@<TRIPOS>BOND
     1     1     3 ar  
     2     1    27 ar  
     3     1    33 1   
     4     2     3 ar  
     5     2     6 1   
     6     2    31 ar  
     7     3     4 1   
     8     4     5 2   
     9     4    26 1   
    10     5     6 1   
    11     5     7 1   
    12     6    24 1   
    13     6    25 1   
    14     7     8 2   
    15     7    34 1   
    16     8     9 1   
    17     8    35 1   
    18     9    10 2   
    19     9    36 1   
    20    10    11 1   
    21    10    15 1   
    22    11    12 ar  
    23    11    19 ar  
    24    12    13 1   
    25    12    16 ar  
    26    13    14 1   
    27    13    20 1   
    28    14    15 2   
    29    14    37 1   
    30    15    38 1   
    31    16    17 ar  
    32    16    39 1   
    33    17    18 ar  
    34    17    40 1   
    35    18    19 ar  
    36    18    41 1   
    37    19    42 1   
    38    20    21 1   
    39    20    43 1   
    40    20    44 1   
    41    21    22 1   
    42    21    45 1   
    43    21    46 1   
    44    22    23 1   
    45    22    47 1   
    46    22    48 1   
    47    23    28 1   
    48    23    30 1   
    49    23    32 1   
    50    24    49 1   
    51    24    50 1   
    52    24    51 1   
    53    25    52 1   
    54    25    53 1   
    55    25    54 1   
    56    26    55 1   
    57    26    56 1   
    58    26    57 1   
    59    27    29 ar  
    60    27    58 1   
    61    29    31 ar  
    62    29    59 1   
    63    31    60 1   
@<TRIPOS>SUBSTRUCTURE
     1 DIW         1 TEMP              0 ****  ****    0 ROOT
