@<TRIPOS>MOLECULE
DIW
   60    63     1     0     0
SMALL
abcg2


@<TRIPOS>ATOM
      1 C            8.1170    -0.1740    -0.7060 ca         1 DIW      -0.125000
      2 C2           6.1500    -1.3870     0.0290 ca         1 DIW      -0.135300
      3 C3           6.7630    -0.2270    -0.4240 ca         1 DIW      -0.000200
      4 N7           5.8030     0.7800    -0.5250 nh         1 DIW      -0.201500
      5 C8           4.5820     0.3440    -0.1570 ce         1 DIW       0.372600
      6 C9           4.6830    -1.1220     0.2510 c5         1 DIW      -0.061000
      7 C10          3.4750     1.1650    -0.1780 ce         1 DIW      -0.462600
      8 C11          2.1740     0.7870     0.1820 cf         1 DIW       0.018000
      9 C12          1.0940     1.6320     0.1020 cf         1 DIW      -0.330000
     10 C13         -0.2320     1.2840     0.4590 cc         1 DIW       0.182800
     11 C14         -1.3490     2.1570     0.1800 ca         1 DIW      -0.105800
     12 C15         -2.6610     1.7810     0.5570 ca         1 DIW       0.291000
     13 N16         -2.8660     0.5800     1.2010 na         1 DIW      -0.533200
     14 C17         -1.8300    -0.2270     1.4490 cd         1 DIW       0.093000
     15 C18         -0.5450     0.0800     1.1080 cc         1 DIW      -0.304000
     16 C19         -3.7440     2.6300     0.2730 ca         1 DIW      -0.129000
     17 C20         -3.5370     3.8240    -0.3700 ca         1 DIW      -0.038000
     18 C21         -2.2490     4.2090    -0.7570 ca         1 DIW      -0.110000
     19 C22         -1.1850     3.3890    -0.4840 ca         1 DIW      -0.063000
     20 C23         -4.2100     0.1130     1.5530 c3         1 DIW       0.181800
     21 C24         -4.9210    -0.5100     0.3600 c3         1 DIW      -0.053400
     22 C25         -6.3210    -0.9540     0.7480 c3         1 DIW      -0.362400
     23 S26         -7.1960    -1.7260    -0.6260 s6         1 DIW       1.315600
     24 C27          3.8400    -2.0290    -0.6540 c3         1 DIW      -0.073600
     25 C28          4.3330    -1.3200     1.7320 c3         1 DIW      -0.073600
     26 C29          6.0790     2.1280    -0.9630 c3         1 DIW       0.056900
     27 C30          8.8540    -1.3410    -0.5190 ca         1 DIW      -0.076000
     28 O30         -8.5310    -2.0670    -0.0970 o          1 DIW      -0.680200
     29 C31          8.2540    -2.5100    -0.0680 ca         1 DIW      -0.122000
     30 O31         -7.2360    -0.7060    -1.6930 o          1 DIW      -0.680200
     31 C32          6.8880    -2.5370     0.2090 ca         1 DIW      -0.055000
     32 O32         -6.3960    -2.9120    -0.9890 o          1 DIW      -0.680200
     33 H            8.6030     0.7260    -1.0580 ha         1 DIW       0.126000
     34 H10          3.6090     2.1900    -0.5030 ha         1 DIW       0.190000
     35 H11          2.0120    -0.2280     0.5200 ha         1 DIW       0.168000
     36 H12          1.2860     2.6260    -0.2780 ha         1 DIW       0.191000
     37 H17         -2.0610    -1.1530     1.9560 h4         1 DIW       0.233000
     38 H18          0.2170    -0.6340     1.3830 ha         1 DIW       0.211000
     39 H19         -4.7520     2.3610     0.5500 ha         1 DIW       0.155000
     40 H20         -4.3820     4.4650    -0.5810 ha         1 DIW       0.141000
     41 H21         -2.0910     5.1470    -1.2710 ha         1 DIW       0.134000
     42 H22         -0.2020     3.7060    -0.7970 ha         1 DIW       0.128000
     43 H23         -4.0950    -0.6200     2.3500 h1         1 DIW       0.073700
     44 H23A        -4.7760     0.9410     1.9780 h1         1 DIW       0.073700
     45 H24         -4.9790     0.2040    -0.4640 hc         1 DIW       0.068700
     46 H24A        -4.3420    -1.3670     0.0090 hc         1 DIW       0.068700
     47 H25         -6.2930    -1.6800     1.5630 h1         1 DIW       0.072200
     48 H25A        -6.9230    -0.1050     1.0800 h1         1 DIW       0.072200
     49 H27          4.0510    -3.0740    -0.4240 hc         1 DIW       0.048700
     50 H27A         2.7710    -1.8750    -0.5110 hc         1 DIW       0.048700
     51 H27B         4.0670    -1.8600    -1.7060 hc         1 DIW       0.048700
     52 H28          4.9380    -0.6770     2.3710 hc         1 DIW       0.048700
     53 H28A         3.2850    -1.1080     1.9350 hc         1 DIW       0.048700
     54 H28B         4.5210    -2.3560     2.0190 hc         1 DIW       0.048700
     55 H29          7.1250     2.2200    -1.2320 h1         1 DIW       0.057367
     56 H29A         5.4790     2.3810    -1.8370 h1         1 DIW       0.057367
     57 H29B         5.8660     2.8430    -0.1680 h1         1 DIW       0.057367
     58 H30          9.9160    -1.3300    -0.7290 ha         1 DIW       0.124000
     59 H31          8.8500    -3.4020     0.0690 ha         1 DIW       0.126000
     60 H32          6.4230    -3.4500     0.5610 ha         1 DIW       0.125000
@<TRIPOS>BOND
     1     1     3 ar  
     2     1    27 ar  
     3     1    33 1   
     4     2     3 ar  
     5     2     6 1   
     6     2    31 ar  
     7     3     4 1   
     8     4     5 2   
     9     4    26 1   
    10     5     6 1   
    11     5     7 1   
    12     6    24 1   
    13     6    25 1   
    14     7     8 2   
    15     7    34 1   
    16     8     9 1   
    17     8    35 1   
    18     9    10 2   
    19     9    36 1   
    20    10    11 1   
    21    10    15 1   
    22    11    12 ar  
    23    11    19 ar  
    24    12    13 1   
    25    12    16 ar  
    26    13    14 1   
    27    13    20 1   
    28    14    15 2   
    29    14    37 1   
    30    15    38 1   
    31    16    17 ar  
    32    16    39 1   
    33    17    18 ar  
    34    17    40 1   
    35    18    19 ar  
    36    18    41 1   
    37    19    42 1   
    38    20    21 1   
    39    20    43 1   
    40    20    44 1   
    41    21    22 1   
    42    21    45 1   
    43    21    46 1   
    44    22    23 1   
    45    22    47 1   
    46    22    48 1   
    47    23    28 1   
    48    23    30 1   
    49    23    32 1   
    50    24    49 1   
    51    24    50 1   
    52    24    51 1   
    53    25    52 1   
    54    25    53 1   
    55    25    54 1   
    56    26    55 1   
    57    26    56 1   
    58    26    57 1   
    59    27    29 ar  
    60    27    58 1   
    61    29    31 ar  
    62    29    59 1   
    63    31    60 1   
@<TRIPOS>SUBSTRUCTURE
     1 DIW         1 TEMP              0 ****  ****    0 ROOT
