@<TRIPOS>MOLECULE
DIX
   29    29     1     0     0
SMALL
No Charge or Current Charge


@<TRIPOS>ATOM
      1 N            0.4200    -0.3370     3.6200 n7         1 DIX      -0.860400
      2 CM          -0.0350    -0.0190     4.9880 c3         1 DIX       0.146100
      3 C3          -0.4610     0.1450     2.5410 c3         1 DIX       0.156800
      4 C2           0.1100    -0.2540     1.1650 c3         1 DIX      -0.080400
      5 C1          -0.7740     0.2200    -0.0120 c3         1 DIX      -0.068400
      6 C8          -0.2620    -0.2020    -1.4110 c5         1 DIX      -0.064700
      7 C7          -1.1470     0.2910    -2.5830 c5         1 DIX      -0.077400
      8 C5           1.0880     0.4300    -1.8400 c5         1 DIX      -0.077400
      9 C4           1.1850     0.0270    -3.3410 c5         1 DIX      -0.079900
     10 C6          -0.2970    -0.1250    -3.8150 c5         1 DIX      -0.079900
     11 HN           1.3480     0.0850     3.4860 hn         1 DIX       0.404000
     12 HM1          0.6690    -0.4180     5.7310 h1         1 DIX       0.027700
     13 HM2         -0.1060     1.0670     5.1340 h1         1 DIX       0.027700
     14 HM3         -1.0220    -0.4590     5.1840 h1         1 DIX       0.027700
     15 H31         -1.4670    -0.2840     2.6500 h1         1 DIX       0.027200
     16 H32         -0.5560     1.2390     2.5850 h1         1 DIX       0.027200
     17 H21          1.1150     0.1700     1.0580 hc         1 DIX       0.045200
     18 H22          0.2120    -1.3460     1.1200 hc         1 DIX       0.045200
     19 H11         -1.7870    -0.1780     0.1330 hc         1 DIX       0.038200
     20 H12         -0.8660     1.3120     0.0340 hc         1 DIX       0.038200
     21 H1          -0.1980    -1.2980    -1.4110 hc         1 DIX       0.046700
     22 H2'1        -2.1380    -0.1770    -2.5880 hc         1 DIX       0.040450
     23 H2'2        -1.3000     1.3770    -2.5490 hc         1 DIX       0.040450
     24 H5'1         1.0780     1.5200    -1.7210 hc         1 DIX       0.040450
     25 H5'2         1.9360     0.0490    -1.2600 hc         1 DIX       0.040450
     26 H4'1         1.7270    -0.9180    -3.4620 hc         1 DIX       0.041450
     27 H4'2         1.7280     0.7810    -3.9230 hc         1 DIX       0.041450
     28 H3'1        -0.5050    -1.1630    -4.1010 hc         1 DIX       0.041450
     29 H3'2        -0.5180     0.4960    -4.6910 hc         1 DIX       0.041450
@<TRIPOS>BOND
     1     1     2 1   
     2     1     3 1   
     3     1    11 1   
     4     2    12 1   
     5     2    13 1   
     6     2    14 1   
     7     3     4 1   
     8     3    15 1   
     9     3    16 1   
    10     4     5 1   
    11     4    17 1   
    12     4    18 1   
    13     5     6 1   
    14     5    19 1   
    15     5    20 1   
    16     6     7 1   
    17     6     8 1   
    18     6    21 1   
    19     7    10 1   
    20     7    22 1   
    21     7    23 1   
    22     8     9 1   
    23     8    24 1   
    24     8    25 1   
    25     9    10 1   
    26     9    26 1   
    27     9    27 1   
    28    10    28 1   
    29    10    29 1   
@<TRIPOS>SUBSTRUCTURE
     1 DIX         1 TEMP              0 ****  ****    0 ROOT
