@<TRIPOS>MOLECULE
DIX
   29    29     1     0     0
SMALL
bcc


@<TRIPOS>ATOM
      1 N            0.4240    -0.1990     3.5690 n7         1 DIX      -0.805200
      2 CM          -0.0320     0.3430     4.8310 c3         1 DIX       0.146100
      3 C3          -0.3990     0.2150     2.4490 c3         1 DIX       0.156800
      4 C2           0.1160    -0.3560     1.1370 c3         1 DIX      -0.080400
      5 C1          -0.7530     0.0290    -0.0530 c3         1 DIX      -0.068400
      6 C8          -0.2570    -0.5360    -1.3800 c5         1 DIX      -0.064700
      7 C7          -1.1760    -0.1710    -2.5760 c5         1 DIX      -0.077400
      8 C5           1.1410    -0.0230    -1.7770 c5         1 DIX      -0.077400
      9 C4           1.1050     0.0810    -3.2990 c5         1 DIX      -0.079900
     10 C6          -0.3020     0.6080    -3.5660 c5         1 DIX      -0.079900
     11 HN           1.3750     0.1070     3.4050 hn         1 DIX       0.348800
     12 HM1          0.6500     0.0490     5.6300 h1         1 DIX       0.027700
     13 HM2         -0.1170     1.4390     4.8490 h1         1 DIX       0.027700
     14 HM3         -1.0160    -0.0620     5.0750 h1         1 DIX       0.027700
     15 H31         -1.4190    -0.1430     2.6250 h1         1 DIX       0.027200
     16 H32         -0.4730     1.3130     2.3640 h1         1 DIX       0.027200
     17 H21          1.1430    -0.0130     0.9750 hc         1 DIX       0.045200
     18 H22          0.1640    -1.4460     1.2180 hc         1 DIX       0.045200
     19 H11         -1.7780    -0.3150     0.1250 hc         1 DIX       0.038200
     20 H12         -0.8070     1.1220    -0.1340 hc         1 DIX       0.038200
     21 H1          -0.2160    -1.6260    -1.2880 hc         1 DIX       0.046700
     22 H2'1        -1.5580    -1.0790    -3.0470 hc         1 DIX       0.040450
     23 H2'2        -2.0480     0.4040    -2.2570 hc         1 DIX       0.040450
     24 H5'1         1.3050     0.9740    -1.3510 hc         1 DIX       0.040450
     25 H5'2         1.9460    -0.6600    -1.4070 hc         1 DIX       0.040450
     26 H4'1         1.2280    -0.9090    -3.7480 hc         1 DIX       0.041450
     27 H4'2         1.8920     0.7200    -3.7040 hc         1 DIX       0.041450
     28 H3'1        -0.6210     0.4850    -4.6030 hc         1 DIX       0.041450
     29 H3'2        -0.3380     1.6780    -3.3420 hc         1 DIX       0.041450
@<TRIPOS>BOND
     1     1     2 1   
     2     1     3 1   
     3     1    11 1   
     4     2    12 1   
     5     2    13 1   
     6     2    14 1   
     7     3     4 1   
     8     3    15 1   
     9     3    16 1   
    10     4     5 1   
    11     4    17 1   
    12     4    18 1   
    13     5     6 1   
    14     5    19 1   
    15     5    20 1   
    16     6     7 1   
    17     6     8 1   
    18     6    21 1   
    19     7    10 1   
    20     7    22 1   
    21     7    23 1   
    22     8     9 1   
    23     8    24 1   
    24     8    25 1   
    25     9    10 1   
    26     9    26 1   
    27     9    27 1   
    28    10    28 1   
    29    10    29 1   
@<TRIPOS>SUBSTRUCTURE
     1 DIX         1 TEMP              0 ****  ****    0 ROOT
