@<TRIPOS>MOLECULE
DIY
   29    29     1     0     0
SMALL
No Charge or Current Charge


@<TRIPOS>ATOM
      1 N1          -1.4930    -0.1240    -2.2690 n7         1 DIY      -0.864400
      2 C2          -0.5160     0.2660    -3.3120 c6         1 DIY       0.159800
      3 C6          -1.0920     0.3160    -0.9090 c6         1 DIY       0.163800
      4 C3           0.8910    -0.2950    -2.9960 c6         1 DIY      -0.074400
      5 C4           1.3600     0.1450    -1.5880 c6         1 DIY      -0.072400
      6 C5           0.3080    -0.2380    -0.5100 c6         1 DIY      -0.062700
      7 C1           0.7630     0.2400     0.9040 c3         1 DIY      -0.072400
      8 C7          -0.1360    -0.2160     2.0780 c3         1 DIY      -0.075400
      9 C8           0.4130     0.2090     3.4580 c3         1 DIY      -0.075400
     10 C9          -0.4820    -0.2420     4.6280 c3         1 DIY      -0.089100
     11 HN1         -2.4040     0.2940    -2.4960 hn         1 DIY       0.409000
     12 H21         -0.4680     1.3640    -3.3740 h1         1 DIY       0.026700
     13 H22         -0.8530    -0.1090    -4.2890 h1         1 DIY       0.026700
     14 H61         -1.8500    -0.0270    -0.1910 h1         1 DIY       0.027700
     15 H62         -1.0760     1.4160    -0.8740 h1         1 DIY       0.027700
     16 H31          1.6070     0.0490    -3.7550 hc         1 DIY       0.045700
     17 H32          0.8720    -1.3920    -3.0560 hc         1 DIY       0.045700
     18 H41          1.5240     1.2320    -1.5800 hc         1 DIY       0.037200
     19 H42          2.3280    -0.3210    -1.3580 hc         1 DIY       0.037200
     20 H5           0.2450    -1.3340    -0.4640 hc         1 DIY       0.060700
     21 H1'1         0.8300     1.3350     0.9180 hc         1 DIY       0.037200
     22 H1'2         1.7800    -0.1280     1.0940 hc         1 DIY       0.037200
     23 H2'1        -0.2370    -1.3080     2.0510 hc         1 DIY       0.038700
     24 H2'2        -1.1410     0.2040     1.9560 hc         1 DIY       0.038700
     25 H3'1         0.5170     1.3000     3.4880 hc         1 DIY       0.036200
     26 H3'2         1.4170    -0.2120     3.5960 hc         1 DIY       0.036200
     27 H4'1        -0.0530     0.0810     5.5840 hc         1 DIY       0.031700
     28 H4'2        -1.4850     0.1930     4.5390 hc         1 DIY       0.031700
     29 H4'3        -0.5780    -1.3340     4.6460 hc         1 DIY       0.031700
@<TRIPOS>BOND
     1     1     2 1   
     2     1     3 1   
     3     1    11 1   
     4     2     4 1   
     5     2    12 1   
     6     2    13 1   
     7     3     6 1   
     8     3    14 1   
     9     3    15 1   
    10     4     5 1   
    11     4    16 1   
    12     4    17 1   
    13     5     6 1   
    14     5    18 1   
    15     5    19 1   
    16     6     7 1   
    17     6    20 1   
    18     7     8 1   
    19     7    21 1   
    20     7    22 1   
    21     8     9 1   
    22     8    23 1   
    23     8    24 1   
    24     9    10 1   
    25     9    25 1   
    26     9    26 1   
    27    10    27 1   
    28    10    28 1   
    29    10    29 1   
@<TRIPOS>SUBSTRUCTURE
     1 DIY         1 TEMP              0 ****  ****    0 ROOT
