@<TRIPOS>MOLECULE
DIY
   29    29     1     0     0
SMALL
bcc


@<TRIPOS>ATOM
      1 N1          -1.4480    -0.0970    -2.2200 n7         1 DIY      -0.809200
      2 C2          -0.4970     0.2790    -3.2510 c6         1 DIY       0.159800
      3 C6          -1.0530     0.3850    -0.9090 c6         1 DIY       0.163800
      4 C3           0.8630    -0.3290    -2.9430 c6         1 DIY      -0.074400
      5 C4           1.3320     0.0890    -1.5550 c6         1 DIY      -0.072400
      6 C5           0.2830    -0.2230    -0.4890 c6         1 DIY      -0.062700
      7 C1           0.7330     0.2630     0.8870 c3         1 DIY      -0.072400
      8 C7          -0.1200    -0.2350     2.0490 c3         1 DIY      -0.075400
      9 C8           0.3800     0.2490     3.4040 c3         1 DIY      -0.075400
     10 C9          -0.4490    -0.2820     4.5660 c3         1 DIY      -0.089100
     11 HN1         -2.3600     0.2740    -2.4520 hn         1 DIY       0.353800
     12 H21         -0.3830     1.3730    -3.3400 h1         1 DIY       0.026700
     13 H22         -0.8640    -0.0790    -4.2160 h1         1 DIY       0.026700
     14 H61         -1.8360     0.1200    -0.1940 h1         1 DIY       0.027700
     15 H62         -0.9540     1.4860    -0.8760 h1         1 DIY       0.027700
     16 H31          1.5860    -0.0210    -3.7020 hc         1 DIY       0.045700
     17 H32          0.7880    -1.4200    -2.9960 hc         1 DIY       0.045700
     18 H41          1.5290     1.1690    -1.5500 hc         1 DIY       0.037200
     19 H42          2.2770    -0.3990    -1.3030 hc         1 DIY       0.037200
     20 H5           0.1530    -1.3120    -0.4470 hc         1 DIY       0.060700
     21 H1'1         0.7570     1.3590     0.8930 hc         1 DIY       0.037200
     22 H1'2         1.7680    -0.0600     1.0490 hc         1 DIY       0.037200
     23 H2'1        -0.1340    -1.3310     2.0380 hc         1 DIY       0.038700
     24 H2'2        -1.1600     0.0800     1.9180 hc         1 DIY       0.038700
     25 H3'1         0.3750     1.3430     3.4220 hc         1 DIY       0.036200
     26 H3'2         1.4240    -0.0510     3.5330 hc         1 DIY       0.036200
     27 H4'1        -0.0840     0.0910     5.5230 hc         1 DIY       0.031700
     28 H4'2        -1.4960     0.0160     4.4730 hc         1 DIY       0.031700
     29 H4'3        -0.4220    -1.3730     4.6040 hc         1 DIY       0.031700
@<TRIPOS>BOND
     1     1     2 1   
     2     1     3 1   
     3     1    11 1   
     4     2     4 1   
     5     2    12 1   
     6     2    13 1   
     7     3     6 1   
     8     3    14 1   
     9     3    15 1   
    10     4     5 1   
    11     4    16 1   
    12     4    17 1   
    13     5     6 1   
    14     5    18 1   
    15     5    19 1   
    16     6     7 1   
    17     6    20 1   
    18     7     8 1   
    19     7    21 1   
    20     7    22 1   
    21     8     9 1   
    22     8    23 1   
    23     8    24 1   
    24     9    10 1   
    25     9    25 1   
    26     9    26 1   
    27    10    27 1   
    28    10    28 1   
    29    10    29 1   
@<TRIPOS>SUBSTRUCTURE
     1 DIY         1 TEMP              0 ****  ****    0 ROOT
