@<TRIPOS>MOLECULE
DIZ
   46    49     1     0     0
SMALL
abcg2


@<TRIPOS>ATOM
      1 CL1         -5.4150    -3.7320    -0.8980 cl         1 DIZ      -0.246000
      2 C1          -4.6840    -2.1600    -0.9450 ca         1 DIZ       0.110000
      3 C2          -3.8180    -1.8410    -1.9780 ca         1 DIZ      -0.121000
      4 C3          -3.2360    -0.5830    -1.9990 ca         1 DIZ      -0.089000
      5 C4          -3.5050     0.3610    -1.0100 ca         1 DIZ      -0.036300
      6 C5          -4.3920     0.0160     0.0050 ca         1 DIZ      -0.089000
      7 C6          -4.9790    -1.2410     0.0490 ca         1 DIZ      -0.121000
      8 C7          -2.7510     1.6690    -1.0320 c3         1 DIZ      -0.026000
      9 C8          -3.5220     2.9120    -0.5110 c          1 DIZ       0.719000
     10 O1          -2.8450     3.7730     0.0730 o          1 DIZ      -0.699000
     11 O2          -4.7300     2.9440    -0.7950 o          1 DIZ      -0.699000
     12 N1          -1.4550     1.5140    -0.3740 n          1 DIZ      -0.345800
     13 C9          -0.3240     1.5920    -1.1050 c          1 DIZ       0.583600
     14 O3          -0.3280     1.6780    -2.3260 o          1 DIZ      -0.577000
     15 C10          0.9870     1.5500    -0.3940 ca         1 DIZ      -0.167600
     16 C11          2.0160     0.8740    -1.0520 ca         1 DIZ      -0.009000
     17 C12          3.2970     0.8790    -0.5420 ca         1 DIZ       0.155000
     18 I1           4.8200    -0.1790    -1.5300 i          1 DIZ      -0.335000
     19 C13          3.5910     1.5900     0.6160 ca         1 DIZ      -0.045000
     20 C14          2.5760     2.2570     1.2700 ca         1 DIZ      -0.182000
     21 C15          1.2650     2.2300     0.7920 ca         1 DIZ       0.043000
     22 N2           0.3030     2.9250     1.5210 ns         1 DIZ      -0.140000
     23 C16         -0.9520     2.5000     1.8310 c          1 DIZ       0.596000
     24 O4          -1.5950     3.0220     2.7160 o          1 DIZ      -0.511000
     25 C17         -1.4590     1.2890     1.0570 c3         1 DIZ       0.089000
     26 C18         -0.7710     0.0020     1.4910 ca         1 DIZ      -0.086300
     27 C19         -0.2760    -0.1340     2.7830 ca         1 DIZ      -0.091500
     28 C20          0.3040    -1.3200     3.2070 ca         1 DIZ      -0.106000
     29 C21          0.3780    -2.3880     2.3290 ca         1 DIZ       0.117000
     30 CL2          1.1050    -3.8740     2.8460 cl         1 DIZ      -0.225000
     31 C22         -0.1230    -2.2830     1.0420 ca         1 DIZ      -0.106000
     32 C23         -0.6960    -1.0900     0.6330 ca         1 DIZ      -0.091500
     33 H2          -3.5970    -2.5590    -2.7560 ha         1 DIZ       0.115000
     34 H3          -2.5500    -0.3360    -2.8010 ha         1 DIZ       0.131000
     35 H5          -4.6470     0.7280     0.7790 ha         1 DIZ       0.131000
     36 H6          -5.6620    -1.4940     0.8480 ha         1 DIZ       0.115000
     37 H7          -2.5300     1.8930    -2.0770 h1         1 DIZ       0.090700
     38 H11          1.7870     0.3500    -1.9690 ha         1 DIZ       0.143000
     39 H13          4.5930     1.6220     1.0200 ha         1 DIZ       0.118000
     40 H14          2.7990     2.7980     2.1820 ha         1 DIZ       0.114000
     41 HN2          0.6570     3.6560     2.1240 hn         1 DIZ       0.147000
     42 H17         -2.5030     1.1960     1.3570 h1         1 DIZ       0.119700
     43 H19         -0.3300     0.6830     3.4920 ha         1 DIZ       0.130000
     44 H20          0.6910    -1.4050     4.2130 ha         1 DIZ       0.124000
     45 H22         -0.0700    -3.1200     0.3580 ha         1 DIZ       0.124000
     46 H23         -1.0850    -1.0250    -0.3740 ha         1 DIZ       0.130000
@<TRIPOS>BOND
     1     1     2 1   
     2     2     3 ar  
     3     2     7 ar  
     4     3     4 ar  
     5     3    33 1   
     6     4     5 ar  
     7     4    34 1   
     8     5     6 ar  
     9     5     8 1   
    10     6     7 ar  
    11     6    35 1   
    12     7    36 1   
    13     8     9 1   
    14     8    12 1   
    15     8    37 1   
    16     9    10 1   
    17     9    11 1   
    18    12    13 1   
    19    12    25 1   
    20    13    14 2   
    21    13    15 1   
    22    15    16 ar  
    23    15    21 ar  
    24    16    17 ar  
    25    16    38 1   
    26    17    18 1   
    27    17    19 ar  
    28    19    20 ar  
    29    19    39 1   
    30    20    21 ar  
    31    20    40 1   
    32    21    22 1   
    33    22    23 1   
    34    22    41 1   
    35    23    24 2   
    36    23    25 1   
    37    25    26 1   
    38    25    42 1   
    39    26    27 ar  
    40    26    32 ar  
    41    27    28 ar  
    42    27    43 1   
    43    28    29 ar  
    44    28    44 1   
    45    29    30 1   
    46    29    31 ar  
    47    31    32 ar  
    48    31    45 1   
    49    32    46 1   
@<TRIPOS>SUBSTRUCTURE
     1 DIZ         1 TEMP              0 ****  ****    0 ROOT
