@<TRIPOS>MOLECULE
DIZ
   46    49     1     0     0
SMALL
No Charge or Current Charge


@<TRIPOS>ATOM
      1 Cl1         -5.7120    -3.7080    -0.8150 cl         1 DIZ      -0.246000
      2 C1          -4.8790    -2.1610    -0.8800 ca         1 DIZ       0.110000
      3 C2          -3.9710    -1.8970    -1.9170 ca         1 DIZ      -0.121000
      4 C3          -3.3030    -0.6610    -1.9670 ca         1 DIZ      -0.089000
      5 C4          -3.5350     0.3190    -0.9800 ca         1 DIZ      -0.036300
      6 C5          -4.4550     0.0450     0.0560 ca         1 DIZ      -0.089000
      7 C6          -5.1230    -1.1920     0.1040 ca         1 DIZ      -0.121000
      8 C7          -2.7690     1.6440    -1.0510 c3         1 DIZ      -0.026000
      9 C8          -3.6720     2.8710    -0.7130 c          1 DIZ       0.719000
     10 O1          -3.6860     3.3080     0.4290 o          1 DIZ      -0.699000
     11 O2          -4.3340     3.3580    -1.6200 o          1 DIZ      -0.699000
     12 N1          -1.4300     1.5920    -0.3490 n          1 DIZ      -0.345800
     13 C9          -0.2320     1.5070    -1.1040 c          1 DIZ       0.583600
     14 O3          -0.2750     1.4130    -2.3250 o          1 DIZ      -0.577000
     15 C10          1.1200     1.5830    -0.4220 ca         1 DIZ      -0.167600
     16 C11          2.2110     0.9830    -1.0990 ca         1 DIZ      -0.009000
     17 C12          3.5140     1.0570    -0.5900 ca         1 DIZ       0.155000
     18 I1           5.1490     0.1090    -1.6510 i          1 DIZ      -0.335000
     19 C13          3.7630     1.7540     0.5970 ca         1 DIZ      -0.045000
     20 C14          2.7000     2.3680     1.2760 ca         1 DIZ      -0.182000
     21 C15          1.3810     2.2800     0.7900 ca         1 DIZ       0.043000
     22 N2           0.3960     2.9330     1.5600 ns         1 DIZ      -0.140000
     23 C16         -0.8630     2.5080     1.9160 c          1 DIZ       0.596000
     24 O4          -1.4870     3.0670     2.8120 o          1 DIZ      -0.511000
     25 C17         -1.4340     1.3190     1.1200 c3         1 DIZ       0.089000
     26 C18         -0.8030    -0.0320     1.5370 ca         1 DIZ      -0.086300
     27 C19         -0.3180    -0.2260     2.8530 ca         1 DIZ      -0.091500
     28 C20          0.2560    -1.4510     3.2340 ca         1 DIZ      -0.106000
     29 C21          0.3430    -2.5040     2.3130 ca         1 DIZ       0.117000
     30 Cl2          1.0610    -4.0360     2.7910 cl         1 DIZ      -0.225000
     31 C22         -0.1520    -2.3370     1.0120 ca         1 DIZ      -0.106000
     32 C23         -0.7260    -1.1140     0.6290 ca         1 DIZ      -0.091500
     33 H2          -3.7830    -2.6490    -2.6790 ha         1 DIZ       0.115000
     34 H3          -2.5950    -0.4680    -2.7710 ha         1 DIZ       0.131000
     35 H5          -4.6570     0.7820     0.8290 ha         1 DIZ       0.131000
     36 H6          -5.8280    -1.3980     0.9060 ha         1 DIZ       0.115000
     37 H7          -2.5730     1.8050    -2.1170 h1         1 DIZ       0.090700
     38 H11          2.0520     0.4470    -2.0320 ha         1 DIZ       0.143000
     39 H13          4.7750     1.8190     0.9880 ha         1 DIZ       0.118000
     40 H14          2.9040     2.9080     2.1980 ha         1 DIZ       0.114000
     41 HN2          0.7350     3.7290     2.0840 hn         1 DIZ       0.147000
     42 H17         -2.4770     1.2670     1.4510 h1         1 DIZ       0.119700
     43 H19         -0.3820     0.5650     3.5980 ha         1 DIZ       0.130000
     44 H20          0.6310    -1.5860     4.2450 ha         1 DIZ       0.124000
     45 H22         -0.0940    -3.1570     0.3010 ha         1 DIZ       0.124000
     46 H23         -1.1070    -1.0200    -0.3830 ha         1 DIZ       0.130000
@<TRIPOS>BOND
     1     1     2 1   
     2     2     3 ar  
     3     2     7 ar  
     4     3     4 ar  
     5     3    33 1   
     6     4     5 ar  
     7     4    34 1   
     8     5     6 ar  
     9     5     8 1   
    10     6     7 ar  
    11     6    35 1   
    12     7    36 1   
    13     8     9 1   
    14     8    12 1   
    15     8    37 1   
    16     9    10 1   
    17     9    11 1   
    18    12    13 1   
    19    12    25 1   
    20    13    14 2   
    21    13    15 1   
    22    15    16 ar  
    23    15    21 ar  
    24    16    17 ar  
    25    16    38 1   
    26    17    18 1   
    27    17    19 ar  
    28    19    20 ar  
    29    19    39 1   
    30    20    21 ar  
    31    20    40 1   
    32    21    22 1   
    33    22    23 1   
    34    22    41 1   
    35    23    24 2   
    36    23    25 1   
    37    25    26 1   
    38    25    42 1   
    39    26    27 ar  
    40    26    32 ar  
    41    27    28 ar  
    42    27    43 1   
    43    28    29 ar  
    44    28    44 1   
    45    29    30 1   
    46    29    31 ar  
    47    31    32 ar  
    48    31    45 1   
    49    32    46 1   
@<TRIPOS>SUBSTRUCTURE
     1 DIZ         1 TEMP              0 ****  ****    0 ROOT
