@<TRIPOS>MOLECULE
DJ0
   34    35     1     0     0
SMALL
bcc


@<TRIPOS>ATOM
      1 C27          0.3930     3.6920    -0.3770 c          1 DJ0       0.571900
      2 C28         -0.3980     2.4550    -0.6700 c3         1 DJ0      -0.201400
      3 C29         -0.8830     1.7960     0.6260 c3         1 DJ0      -0.017100
      4 C30         -1.7460     0.5930     0.3690 ca         1 DJ0      -0.045300
      5 C31         -1.1770    -0.6010    -0.0760 ca         1 DJ0       0.050100
      6 C32         -2.0060    -1.6900    -0.3160 ca         1 DJ0       0.146900
      7 C33         -3.3750    -1.6370    -0.1500 ca         1 DJ0      -0.208000
      8 C34         -3.9070    -0.4370     0.2790 ca         1 DJ0       0.160900
      9 C35         -3.1250     0.6700     0.5390 ca         1 DJ0      -0.180000
     10 C36          0.9380    -1.2400     0.7600 c3         1 DJ0       0.186700
     11 C37          2.3730    -0.9270     0.4680 ca         1 DJ0      -0.099300
     12 C38          2.8880     0.3340     0.7590 ca         1 DJ0      -0.102500
     13 C39          4.2020     0.6490     0.4500 ca         1 DJ0      -0.130500
     14 C40          5.0190    -0.2980    -0.1570 ca         1 DJ0      -0.115000
     15 C41          4.5150    -1.5570    -0.4510 ca         1 DJ0      -0.130500
     16 C42          3.1960    -1.8680    -0.1410 ca         1 DJ0      -0.102500
     17 F           -1.4510    -2.8330    -0.7340 f          1 DJ0      -0.126900
     18 F1          -5.2330    -0.3500     0.4480 f          1 DJ0      -0.134900
     19 O15          1.4700     3.9540    -0.8500 o          1 DJ0      -0.507100
     20 O16          0.1570    -0.6890    -0.3090 os         1 DJ0      -0.323900
     21 H1          -0.0970     4.3890     0.3290 h4         1 DJ0      -0.023800
     22 H2          -1.2710     2.7660    -1.2560 hc         1 DJ0       0.080700
     23 H3           0.1900     1.7690    -1.2790 hc         1 DJ0       0.080700
     24 H4          -0.0240     1.5190     1.2420 hc         1 DJ0       0.051200
     25 H5          -1.4540     2.5210     1.2080 hc         1 DJ0       0.051200
     26 H6          -3.9990    -2.4970    -0.3520 ha         1 DJ0       0.171000
     27 H7          -3.5820     1.5910     0.8790 ha         1 DJ0       0.155000
     28 H8           0.7800    -2.3210     0.8280 h1         1 DJ0       0.041200
     29 H9           0.6290    -0.7980     1.7120 h1         1 DJ0       0.041200
     30 H10          2.2620     1.0740     1.2430 ha         1 DJ0       0.129500
     31 H11          4.5900     1.6310     0.6860 ha         1 DJ0       0.133500
     32 H12          6.0460    -0.0550    -0.3970 ha         1 DJ0       0.132000
     33 H13          5.1470    -2.3000    -0.9210 ha         1 DJ0       0.133500
     34 H14          2.8080    -2.8520    -0.3750 ha         1 DJ0       0.129500
@<TRIPOS>BOND
     1     1     2 1   
     2     1    19 2   
     3     1    21 1   
     4     2     3 1   
     5     2    22 1   
     6     2    23 1   
     7     3     4 1   
     8     3    24 1   
     9     3    25 1   
    10     4     5 ar  
    11     4     9 ar  
    12     5     6 ar  
    13     5    20 1   
    14     6     7 ar  
    15     6    17 1   
    16     7     8 ar  
    17     7    26 1   
    18     8     9 ar  
    19     8    18 1   
    20     9    27 1   
    21    10    11 1   
    22    10    20 1   
    23    10    28 1   
    24    10    29 1   
    25    11    12 ar  
    26    11    16 ar  
    27    12    13 ar  
    28    12    30 1   
    29    13    14 ar  
    30    13    31 1   
    31    14    15 ar  
    32    14    32 1   
    33    15    16 ar  
    34    15    33 1   
    35    16    34 1   
@<TRIPOS>SUBSTRUCTURE
     1 DJ0         1 TEMP              0 ****  ****    0 ROOT
