@<TRIPOS>MOLECULE
DJ0
   34    35     1     0     0
SMALL
No Charge or Current Charge


@<TRIPOS>ATOM
      1 C27          0.2280     3.6170    -1.4920 c          1 DJ0       0.571900
      2 C28         -0.5360     2.3050    -1.3160 c3         1 DJ0      -0.201400
      3 C29         -1.0450     2.1380     0.1350 c3         1 DJ0      -0.017100
      4 C30         -1.8410     0.8450     0.3210 ca         1 DJ0      -0.045300
      5 C31         -1.1870    -0.3980     0.5130 ca         1 DJ0       0.050100
      6 C32         -1.9790    -1.5740     0.6760 ca         1 DJ0       0.182000
      7 C33         -3.3790    -1.4980     0.6430 ca         1 DJ0      -0.190000
      8 C34         -4.0080    -0.2650     0.4490 ca         1 DJ0       0.196000
      9 C35         -3.2490     0.9000     0.2880 ca         1 DJ0      -0.162000
     10 C36          1.0320    -1.5540     0.6140 c3         1 DJ0       0.209900
     11 C37          2.4860    -1.1140     0.5200 ca         1 DJ0      -0.099300
     12 C38          3.3080    -1.1070     1.6650 ca         1 DJ0      -0.084500
     13 C39          4.6500    -0.6990     1.5710 ca         1 DJ0      -0.112500
     14 C40          5.1780    -0.2930     0.3340 ca         1 DJ0      -0.097000
     15 C41          4.3630    -0.2960    -0.8110 ca         1 DJ0      -0.112500
     16 C42          3.0210    -0.7050    -0.7180 ca         1 DJ0      -0.084500
     17 F           -1.4310    -2.7950     0.8710 f          1 DJ0      -0.162000
     18 F1          -5.3570    -0.1970     0.4160 f          1 DJ0      -0.170000
     19 O15          1.4150     3.7460    -1.2120 o          1 DJ0      -0.507100
     20 O16          0.2030    -0.3830     0.5260 os         1 DJ0      -0.347100
     21 H1          -0.3640     4.4680    -1.8940 h4         1 DJ0      -0.023800
     22 H2          -1.4120     2.3240    -1.9740 hc         1 DJ0       0.080700
     23 H3           0.1230     1.4660    -1.5670 hc         1 DJ0       0.080700
     24 H4          -0.1930     2.1630     0.8260 hc         1 DJ0       0.051200
     25 H5          -1.6650     3.0040     0.3980 hc         1 DJ0       0.051200
     26 H6          -3.9760    -2.3960     0.7690 ha         1 DJ0       0.153000
     27 H7          -3.7590     1.8480     0.1350 ha         1 DJ0       0.137000
     28 H8           0.8130    -2.2470    -0.2090 h1         1 DJ0       0.041200
     29 H9           0.8660    -2.0770     1.5650 h1         1 DJ0       0.041200
     30 H10          2.9070    -1.4170     2.6280 ha         1 DJ0       0.111500
     31 H11          5.2800    -0.6950     2.4580 ha         1 DJ0       0.115500
     32 H12          6.2170     0.0240     0.2620 ha         1 DJ0       0.114000
     33 H13          4.7700     0.0190    -1.7690 ha         1 DJ0       0.115500
     34 H14          2.3950    -0.7020    -1.6080 ha         1 DJ0       0.111500
@<TRIPOS>BOND
     1     1     2 1   
     2     1    19 2   
     3     1    21 1   
     4     2     3 1   
     5     2    22 1   
     6     2    23 1   
     7     3     4 1   
     8     3    24 1   
     9     3    25 1   
    10     4     5 ar  
    11     4     9 ar  
    12     5     6 ar  
    13     5    20 1   
    14     6     7 ar  
    15     6    17 1   
    16     7     8 ar  
    17     7    26 1   
    18     8     9 ar  
    19     8    18 1   
    20     9    27 1   
    21    10    11 1   
    22    10    20 1   
    23    10    28 1   
    24    10    29 1   
    25    11    12 ar  
    26    11    16 ar  
    27    12    13 ar  
    28    12    30 1   
    29    13    14 ar  
    30    13    31 1   
    31    14    15 ar  
    32    14    32 1   
    33    15    16 ar  
    34    15    33 1   
    35    16    34 1   
@<TRIPOS>SUBSTRUCTURE
     1 DJ0         1 TEMP              0 ****  ****    0 ROOT
