@<TRIPOS>MOLECULE
DJ1
   80    83     1     0     0
SMALL
No Charge or Current Charge


@<TRIPOS>ATOM
      1 C15         -2.8040     1.9210    -0.7480 c5         1 DJ1       0.178500
      2 C17         -2.9860     4.1180    -1.6170 c5         1 DJ1      -0.078900
      3 C20         -3.8330    -0.4730     1.2020 c          1 DJ1       0.554100
      4 C12         -1.4540    -1.3220     0.8770 c3         1 DJ1       0.054600
      5 N14         -2.0280     0.9980     0.1120 n7         1 DJ1      -0.867400
      6 C16         -1.9270     3.1660    -1.0070 c5         1 DJ1      -0.095400
      7 C18         -4.2430     3.8930    -0.7170 c5         1 DJ1      -0.078900
      8 C19         -3.9610     2.5680     0.0610 c5         1 DJ1      -0.095400
      9 C01          4.3720     3.0390     1.0450 c3         1 DJ1      -0.108433
     10 C02          3.2320     2.8430     0.0120 c3         1 DJ1       0.226000
     11 C03          1.8370     3.2420     0.5600 c3         1 DJ1      -0.108433
     12 C04          3.5410     3.6450    -1.2710 c3         1 DJ1      -0.108433
     13 C06          2.9350     0.4290     0.4250 c          1 DJ1       0.659100
     14 C09          2.6690    -2.0740     0.1920 c3         1 DJ1       0.162700
     15 C10          1.2590    -2.1800     0.8320 c3         1 DJ1       0.025600
     16 C13         -2.5570    -0.3980     0.2990 c3         1 DJ1       0.136500
     17 C23         -6.3020    -0.9320     1.2000 c3         1 DJ1       0.155300
     18 C24         -7.4100    -0.8610     0.1670 ca         1 DJ1      -0.170300
     19 C25         -7.8520    -2.0180    -0.5000 ca         1 DJ1      -0.058000
     20 C26         -8.8800    -1.8860    -1.4470 ca         1 DJ1      -0.166000
     21 C27         -9.4270    -0.6160    -1.6940 ca         1 DJ1       0.343900
     22 C29         -8.0150     0.3730    -0.1450 ca         1 DJ1       0.348900
     23 C30          3.7780    -2.6030     1.1370 c3         1 DJ1      -0.020200
     24 C31          5.1450    -2.6310     0.4980 cc         1 DJ1      -0.136400
     25 C32          5.6620    -3.6250    -0.3280 cd         1 DJ1      -0.167100
     26 C34          7.2260    -2.0370    -0.1730 ca         1 DJ1      -0.049200
     27 C35          6.1680    -1.6250     0.5890 ca         1 DJ1      -0.089800
     28 C36          6.1990    -0.4170     1.3020 ca         1 DJ1      -0.055000
     29 C37          7.3590     0.3810     1.2030 ca         1 DJ1      -0.145000
     30 C38          8.4500    -0.0400     0.4070 ca         1 DJ1      -0.090000
     31 C39          8.3900    -1.2650    -0.2900 ca         1 DJ1      -0.134000
     32 N08          2.9570    -0.7230    -0.3060 ns         1 DJ1      -0.496900
     33 N28         -9.0060     0.5020    -1.0570 nb         1 DJ1      -0.664000
     34 N33          6.9620    -3.2620    -0.7560 na         1 DJ1      -0.223700
     35 O05          3.2050     1.4650    -0.4260 os         1 DJ1      -0.476100
     36 O07          2.7140     0.4980     1.6240 o          1 DJ1      -0.562000
     37 O21         -3.8200    -0.2100     2.3990 o          1 DJ1      -0.604100
     38 S11         -0.0670    -1.5930    -0.3270 ss         1 DJ1      -0.379000
     39 H1          -3.1400     1.4520    -1.6850 h1         1 DJ1       0.050700
     40 H2          -2.6550     5.1620    -1.6170 hc         1 DJ1       0.041700
     41 H3          -3.1990     3.8490    -2.6590 hc         1 DJ1       0.041700
     42 H4          -1.0570    -0.8780     1.7990 h1         1 DJ1       0.069700
     43 H5          -1.8730     1.4260     1.0320 hn         1 DJ1       0.442000
     44 H7          -1.4970     3.5780    -0.0860 hc         1 DJ1       0.049700
     45 H8          -1.1030     2.9620    -1.6990 hc         1 DJ1       0.049700
     46 H9          -4.3980     4.7280    -0.0230 hc         1 DJ1       0.041700
     47 H10         -5.1510     3.8170    -1.3270 hc         1 DJ1       0.041700
     48 H11         -4.8500     1.9300     0.1060 hc         1 DJ1       0.049700
     49 H12         -3.6650     2.7840     1.0950 hc         1 DJ1       0.049700
     50 H13          4.1390     2.5750     2.0090 hc         1 DJ1       0.048144
     51 H14          5.3100     2.6120     0.6720 hc         1 DJ1       0.048144
     52 H15          4.5380     4.1070     1.2310 hc         1 DJ1       0.048144
     53 H16          1.7620     4.3310     0.6600 hc         1 DJ1       0.048144
     54 H17          1.0440     2.9090    -0.1200 hc         1 DJ1       0.048144
     55 H18          1.6460     2.8130     1.5500 hc         1 DJ1       0.048144
     56 H19          4.5030     3.3400    -1.7000 hc         1 DJ1       0.048144
     57 H20          2.7640     3.4850    -2.0280 hc         1 DJ1       0.048144
     58 H21          3.5900     4.7200    -1.0570 hc         1 DJ1       0.048144
     59 H22          2.6630    -2.7320    -0.6880 h1         1 DJ1       0.052700
     60 H23          1.0550    -3.2230     1.1050 h1         1 DJ1       0.070200
     61 H24          1.2260    -1.5800     1.7490 h1         1 DJ1       0.070200
     62 H25         -2.8360    -0.8160    -0.6780 h1         1 DJ1       0.066700
     63 H26         -6.4100    -0.1060     1.9160 h1         1 DJ1       0.060200
     64 H27         -6.3670    -1.8760     1.7570 h1         1 DJ1       0.060200
     65 H28         -7.4110    -2.9910    -0.2910 ha         1 DJ1       0.123000
     66 H29         -9.2530    -2.7520    -1.9860 ha         1 DJ1       0.127000
     67 H30        -10.2250    -0.4880    -2.4240 h4         1 DJ1       0.022100
     68 H31         -7.6940     1.2890     0.3510 h4         1 DJ1       0.023100
     69 H32          3.8030    -1.9970     2.0500 hc         1 DJ1       0.059700
     70 H33          3.5140    -3.6180     1.4570 hc         1 DJ1       0.059700
     71 H34          5.1960    -4.5540    -0.6490 h4         1 DJ1       0.208000
     72 H35          5.3610    -0.1040     1.9180 ha         1 DJ1       0.127000
     73 H36          7.4140     1.3240     1.7430 ha         1 DJ1       0.110000
     74 H37          9.3400     0.5810     0.3360 ha         1 DJ1       0.108000
     75 H38          9.2260    -1.6000    -0.9000 ha         1 DJ1       0.111000
     76 H39          3.1620    -0.6040    -1.2880 hn         1 DJ1       0.332500
     77 H40         -4.9330    -1.0470    -0.4330 hn         1 DJ1       0.320500
     78 H41          7.5770    -3.7920    -1.3680 hn         1 DJ1       0.349000
     79 H42         -1.8880    -2.2980     1.1310 h1         1 DJ1       0.069700
     80 N22         -4.9930    -0.8500     0.5590 ns         1 DJ1      -0.505900
@<TRIPOS>BOND
     1     1     5 1   
     2     1     6 1   
     3     1     8 1   
     4     1    39 1   
     5     2     6 1   
     6     2     7 1   
     7     2    40 1   
     8     2    41 1   
     9     3    16 1   
    10     3    37 2   
    11     3    80 1   
    12     4    16 1   
    13     4    38 1   
    14     4    42 1   
    15     4    79 1   
    16     5    16 1   
    17     5    43 1   
    18     6    44 1   
    19     6    45 1   
    20     7     8 1   
    21     7    46 1   
    22     7    47 1   
    23     8    48 1   
    24     8    49 1   
    25     9    10 1   
    26     9    50 1   
    27     9    51 1   
    28     9    52 1   
    29    10    11 1   
    30    10    12 1   
    31    10    35 1   
    32    11    53 1   
    33    11    54 1   
    34    11    55 1   
    35    12    56 1   
    36    12    57 1   
    37    12    58 1   
    38    13    32 1   
    39    13    35 1   
    40    13    36 2   
    41    14    15 1   
    42    14    23 1   
    43    14    32 1   
    44    14    59 1   
    45    15    38 1   
    46    15    60 1   
    47    15    61 1   
    48    16    62 1   
    49    17    18 1   
    50    17    63 1   
    51    17    64 1   
    52    17    80 1   
    53    18    19 ar  
    54    18    22 ar  
    55    19    20 ar  
    56    19    65 1   
    57    20    21 ar  
    58    20    66 1   
    59    21    33 ar  
    60    21    67 1   
    61    22    33 ar  
    62    22    68 1   
    63    23    24 1   
    64    23    69 1   
    65    23    70 1   
    66    24    25 2   
    67    24    27 1   
    68    25    34 1   
    69    25    71 1   
    70    26    27 ar  
    71    26    31 ar  
    72    26    34 1   
    73    27    28 ar  
    74    28    29 ar  
    75    28    72 1   
    76    29    30 ar  
    77    29    73 1   
    78    30    31 ar  
    79    30    74 1   
    80    31    75 1   
    81    32    76 1   
    82    34    78 1   
    83    77    80 1   
@<TRIPOS>SUBSTRUCTURE
     1 DJ1         1 TEMP              0 ****  ****    0 ROOT
