@<TRIPOS>MOLECULE
DJ1
   80    83     1     0     0
SMALL
abcg2


@<TRIPOS>ATOM
      1 C15         -3.1700     2.3930    -0.9250 c5         1 DJ1       0.178500
      2 C17         -3.5970     4.6280    -1.8410 c5         1 DJ1      -0.078900
      3 C20         -3.8900     0.1150     1.0530 c          1 DJ1       0.554100
      4 C12         -1.5000    -0.4940     0.8430 c3         1 DJ1       0.054600
      5 N14         -2.2720     1.5990    -0.1160 n7         1 DJ1      -0.867400
      6 C16         -2.4720     3.6550    -1.4480 c5         1 DJ1      -0.095400
      7 C18         -4.9010     4.0080    -1.2940 c5         1 DJ1      -0.078900
      8 C19         -4.4490     2.9550    -0.2860 c5         1 DJ1      -0.095400
      9 C01          5.0170     2.8250     1.7910 c3         1 DJ1      -0.108433
     10 C02          3.9300     2.9890     0.7360 c3         1 DJ1       0.226000
     11 C03          2.6380     3.5370     1.3340 c3         1 DJ1      -0.108433
     12 C04          4.4190     3.9220    -0.3650 c3         1 DJ1      -0.108433
     13 C06          3.1970     0.6610     0.6270 c          1 DJ1       0.659100
     14 C09          2.4100    -1.6020     0.0240 c3         1 DJ1       0.162700
     15 C10          1.0510    -1.5010     0.7160 c3         1 DJ1       0.025600
     16 C13         -2.6500     0.2370     0.1610 c3         1 DJ1       0.136500
     17 C23         -6.2020    -0.6690     1.2000 c3         1 DJ1       0.155300
     18 C24         -7.1880    -1.3710     0.3130 ca         1 DJ1      -0.170300
     19 C25         -7.3150    -2.7540     0.3110 ca         1 DJ1      -0.058000
     20 C26         -8.2200    -3.3470    -0.5540 ca         1 DJ1      -0.166000
     21 C27         -8.9660    -2.5310    -1.3910 ca         1 DJ1       0.343900
     22 C29         -7.9870    -0.6510    -0.5690 ca         1 DJ1       0.348900
     23 C30          3.3550    -2.5210     0.8130 c3         1 DJ1      -0.020200
     24 C31          4.6550    -2.7550     0.1160 cc         1 DJ1      -0.136400
     25 C32          4.9180    -3.7320    -0.8040 cd         1 DJ1      -0.167100
     26 C34          6.8020    -2.5560    -0.6570 ca         1 DJ1      -0.049200
     27 C35          5.8580    -1.9840     0.2260 ca         1 DJ1      -0.089800
     28 C36          6.2380    -0.8770     0.9950 ca         1 DJ1      -0.055000
     29 C37          7.5170    -0.3730     0.8600 ca         1 DJ1      -0.145000
     30 C38          8.4370    -0.9540    -0.0290 ca         1 DJ1      -0.090000
     31 C39          8.0950    -2.0510    -0.7960 ca         1 DJ1      -0.134000
     32 N08          2.9910    -0.3110    -0.2810 ns         1 DJ1      -0.496900
     33 N28         -8.8560    -1.2070    -1.4030 nb         1 DJ1      -0.664000
     34 N33          6.1970    -3.6130    -1.2690 na         1 DJ1      -0.223700
     35 O05          3.6900     1.7470     0.0290 os         1 DJ1      -0.476100
     36 O07          2.9690     0.5540     1.8160 o          1 DJ1      -0.562000
     37 O21         -3.9150     0.5860     2.1820 o          1 DJ1      -0.604100
     38 S11          0.0230    -0.2540    -0.1120 ss         1 DJ1      -0.379000
     39 H1          -3.4660     1.7740    -1.7810 h1         1 DJ1       0.050700
     40 H2          -3.4220     5.6150    -1.4100 hc         1 DJ1       0.041700
     41 H3          -3.6520     4.7700    -2.9210 hc         1 DJ1       0.041700
     42 H4          -1.3560    -0.1230     1.8610 h1         1 DJ1       0.069700
     43 H5          -2.0240     2.0850     0.7390 hn         1 DJ1       0.442000
     44 H7          -1.8650     4.0800    -0.6420 hc         1 DJ1       0.049700
     45 H8          -1.7910     3.4300    -2.2700 hc         1 DJ1       0.049700
     46 H9          -5.5700     4.7510    -0.8590 hc         1 DJ1       0.041700
     47 H10         -5.4540     3.5210    -2.1020 hc         1 DJ1       0.041700
     48 H11         -5.2150     2.1980    -0.1070 hc         1 DJ1       0.049700
     49 H12         -4.2030     3.4150     0.6760 hc         1 DJ1       0.049700
     50 H13          4.6890     2.2230     2.6350 hc         1 DJ1       0.048144
     51 H14          5.9120     2.3690     1.3640 hc         1 DJ1       0.048144
     52 H15          5.2980     3.8080     2.1720 hc         1 DJ1       0.048144
     53 H16          2.8010     4.5640     1.6600 hc         1 DJ1       0.048144
     54 H17          1.8390     3.5490     0.5920 hc         1 DJ1       0.048144
     55 H18          2.3040     2.9640     2.1960 hc         1 DJ1       0.048144
     56 H19          5.3380     3.5520    -0.8230 hc         1 DJ1       0.048144
     57 H20          3.6690     4.0410    -1.1480 hc         1 DJ1       0.048144
     58 H21          4.6280     4.9080     0.0500 hc         1 DJ1       0.048144
     59 H22          2.2440    -2.0630    -0.9520 h1         1 DJ1       0.052700
     60 H23          0.5640    -2.4770     0.6630 h1         1 DJ1       0.070200
     61 H24          1.1590    -1.2360     1.7670 h1         1 DJ1       0.070200
     62 H25         -2.8430    -0.2530    -0.8000 h1         1 DJ1       0.066700
     63 H26         -6.5840     0.3170     1.4780 h1         1 DJ1       0.060200
     64 H27         -6.0620    -1.2300     2.1260 h1         1 DJ1       0.060200
     65 H28         -6.7170    -3.3600     0.9810 ha         1 DJ1       0.123000
     66 H29         -8.3510    -4.4200    -0.5810 ha         1 DJ1       0.127000
     67 H30         -9.6830    -2.9640    -2.0790 h4         1 DJ1       0.022100
     68 H31         -7.9200     0.4330    -0.5940 h4         1 DJ1       0.023100
     69 H32          3.5230    -2.1030     1.8080 hc         1 DJ1       0.059700
     70 H33          2.8400    -3.4730     0.9630 hc         1 DJ1       0.059700
     71 H34          4.2740    -4.5170    -1.1690 h4         1 DJ1       0.208000
     72 H35          5.5460    -0.4220     1.6920 ha         1 DJ1       0.127000
     73 H36          7.8190     0.4850     1.4480 ha         1 DJ1       0.110000
     74 H37          9.4320    -0.5370    -0.1120 ha         1 DJ1       0.108000
     75 H38          8.8040    -2.5010    -1.4800 ha         1 DJ1       0.111000
     76 H39          3.2570    -0.1340    -1.2350 hn         1 DJ1       0.332500
     77 H40         -4.8610    -0.8660    -0.4360 hn         1 DJ1       0.320500
     78 H41          6.6270    -4.2290    -1.9380 hn         1 DJ1       0.349000
     79 H42         -1.7270    -1.5600     0.9070 h1         1 DJ1       0.069700
     80 N22         -4.9330    -0.5250     0.5090 ns         1 DJ1      -0.505900
@<TRIPOS>BOND
     1     1     5 1   
     2     1     6 1   
     3     1     8 1   
     4     1    39 1   
     5     2     6 1   
     6     2     7 1   
     7     2    40 1   
     8     2    41 1   
     9     3    16 1   
    10     3    37 2   
    11     3    80 1   
    12     4    16 1   
    13     4    38 1   
    14     4    42 1   
    15     4    79 1   
    16     5    16 1   
    17     5    43 1   
    18     6    44 1   
    19     6    45 1   
    20     7     8 1   
    21     7    46 1   
    22     7    47 1   
    23     8    48 1   
    24     8    49 1   
    25     9    10 1   
    26     9    50 1   
    27     9    51 1   
    28     9    52 1   
    29    10    11 1   
    30    10    12 1   
    31    10    35 1   
    32    11    53 1   
    33    11    54 1   
    34    11    55 1   
    35    12    56 1   
    36    12    57 1   
    37    12    58 1   
    38    13    32 1   
    39    13    35 1   
    40    13    36 2   
    41    14    15 1   
    42    14    23 1   
    43    14    32 1   
    44    14    59 1   
    45    15    38 1   
    46    15    60 1   
    47    15    61 1   
    48    16    62 1   
    49    17    18 1   
    50    17    63 1   
    51    17    64 1   
    52    17    80 1   
    53    18    19 ar  
    54    18    22 ar  
    55    19    20 ar  
    56    19    65 1   
    57    20    21 ar  
    58    20    66 1   
    59    21    33 ar  
    60    21    67 1   
    61    22    33 ar  
    62    22    68 1   
    63    23    24 1   
    64    23    69 1   
    65    23    70 1   
    66    24    25 2   
    67    24    27 1   
    68    25    34 1   
    69    25    71 1   
    70    26    27 ar  
    71    26    31 ar  
    72    26    34 1   
    73    27    28 ar  
    74    28    29 ar  
    75    28    72 1   
    76    29    30 ar  
    77    29    73 1   
    78    30    31 ar  
    79    30    74 1   
    80    31    75 1   
    81    32    76 1   
    82    34    78 1   
    83    77    80 1   
@<TRIPOS>SUBSTRUCTURE
     1 DJ1         1 TEMP              0 ****  ****    0 ROOT
