@<TRIPOS>MOLECULE
DJ2
   34    36     1     0     0
SMALL
abcg2


@<TRIPOS>ATOM
      1 C4           1.7960    -0.1340    -0.3150 ca         1 DJ2       0.142500
      2 C5           2.4510     0.9840     0.1780 ca         1 DJ2      -0.102600
      3 C6           3.8420     1.0340    -0.0280 ca         1 DJ2       0.451900
      4 C8           0.4130     1.2540     0.6580 cc         1 DJ2       0.409700
      5 N1           4.4150     0.0160    -0.6820 nb         1 DJ2      -0.304000
      6 N3           2.3520    -1.1530    -0.9650 nb         1 DJ2      -0.216000
      7 C1          -0.6070    -0.8460    -0.2820 c5         1 DJ2       0.317300
      8 C2           3.6560    -0.9920    -1.1040 ca         1 DJ2       0.183900
      9 C10         -1.2480    -1.4570     0.9630 c5         1 DJ2       0.079300
     10 C3          -2.6620    -1.7500     0.4540 c5         1 DJ2       0.112300
     11 C7          -2.9120    -0.5430    -0.4420 c5         1 DJ2       0.159300
     12 C9          -3.5820     0.5920     0.3060 c3         1 DJ2       0.154600
     13 N6           4.5990     2.0440     0.4000 nv         1 DJ2      -1.066900
     14 N7           1.5660     1.8410     0.7810 nd         1 DJ2      -0.555100
     15 N9           0.4820     0.0520     0.0060 na         1 DJ2      -0.287300
     16 NAA         -4.3040     2.7620     0.0860 n8         1 DJ2      -0.755700
     17 O2          -0.5210    -2.5770     1.3680 oh         1 DJ2      -0.692000
     18 O3          -2.6820    -2.9100    -0.3360 oh         1 DJ2      -0.703000
     19 O4          -1.6270    -0.1420    -0.9310 os         1 DJ2      -0.436000
     20 O5          -3.6900     1.6790    -0.5760 os         1 DJ2      -0.267300
     21 H1          -0.5240     1.6550     1.0140 h5         1 DJ2       0.067800
     22 H2          -0.1890    -1.6360    -0.9160 h2         1 DJ2       0.122700
     23 H3           4.1820    -1.7810    -1.6290 h5         1 DJ2       0.046100
     24 H4          -1.3030    -0.7030     1.7580 h1         1 DJ2       0.054700
     25 H5          -3.3890    -1.8060     1.2760 h1         1 DJ2       0.056700
     26 H6          -3.5320    -0.8240    -1.2980 h1         1 DJ2       0.103700
     27 H7          -4.5680     0.2460     0.6410 h1         1 DJ2       0.035700
     28 H8          -3.0140     0.8660     1.2060 h1         1 DJ2       0.035700
     29 H9           4.1970     2.8280     0.8840 hn         1 DJ2       0.507000
     30 H10          5.5870     2.0510     0.2170 hn         1 DJ2       0.507000
     31 H11         -3.6530     3.5340    -0.0210 hn         1 DJ2       0.400000
     32 H12         -5.1050     2.9990    -0.4900 hn         1 DJ2       0.400000
     33 H13         -0.7350    -2.7730     2.2860 ho         1 DJ2       0.515000
     34 H14         -2.1910    -3.5960     0.1320 ho         1 DJ2       0.524000
@<TRIPOS>BOND
     1     1     2 ar  
     2     1     6 ar  
     3     1    15 1   
     4     2     3 ar  
     5     2    14 1   
     6     3     5 ar  
     7     3    13 1   
     8     4    14 2   
     9     4    15 1   
    10     4    21 1   
    11     5     8 ar  
    12     6     8 ar  
    13     7     9 1   
    14     7    15 1   
    15     7    19 1   
    16     7    22 1   
    17     8    23 1   
    18     9    10 1   
    19     9    17 1   
    20     9    24 1   
    21    10    11 1   
    22    10    18 1   
    23    10    25 1   
    24    11    12 1   
    25    11    19 1   
    26    11    26 1   
    27    12    20 1   
    28    12    27 1   
    29    12    28 1   
    30    13    29 1   
    31    13    30 1   
    32    16    20 1   
    33    16    31 1   
    34    16    32 1   
    35    17    33 1   
    36    18    34 1   
@<TRIPOS>SUBSTRUCTURE
     1 DJ2         1 TEMP              0 ****  ****    0 ROOT
