@<TRIPOS>MOLECULE
DJ2
   34    36     1     0     0
SMALL
No Charge or Current Charge


@<TRIPOS>ATOM
      1 C4           1.6940    -0.1390    -0.2870 ca         1 DJ2       0.142500
      2 C5           2.3810     0.8580     0.3590 ca         1 DJ2      -0.102600
      3 C6           3.6860     1.1580    -0.0820 ca         1 DJ2       0.451900
      4 C8           0.4730     0.7550     1.3490 cc         1 DJ2       0.409700
      5 N1           4.2440     0.4950    -1.1070 nb         1 DJ2      -0.304000
      6 N3           2.2250    -0.8290    -1.3160 nb         1 DJ2      -0.216000
      7 C1          -0.5950    -1.1550     0.0230 c5         1 DJ2       0.317300
      8 C2           3.4820    -0.4720    -1.6750 ca         1 DJ2       0.183900
      9 C10         -1.5380    -1.6280     1.1940 c5         1 DJ2       0.079300
     10 C3          -2.8750    -1.8390     0.4300 c5         1 DJ2       0.112300
     11 C7          -2.8330    -0.6210    -0.5470 c5         1 DJ2       0.159300
     12 C9          -3.2210     0.7320     0.1150 c3         1 DJ2       0.154600
     13 N6           4.4470     2.1300     0.4880 nv         1 DJ2      -1.066900
     14 N7           1.6340     1.4360     1.3900 nd         1 DJ2      -0.555100
     15 N9           0.4810    -0.2140     0.3370 na         1 DJ2      -0.287300
     16 NAA         -3.8520     2.9880    -0.3500 n8         1 DJ2      -0.755700
     17 O2          -1.1170    -2.8480     1.8380 oh         1 DJ2      -0.692000
     18 O3          -2.8650    -3.1080    -0.2370 oh         1 DJ2      -0.703000
     19 O4          -1.4510    -0.5830    -0.9970 os         1 DJ2      -0.436000
     20 O5          -3.4550     1.7040    -0.9290 os         1 DJ2      -0.267300
     21 H1          -0.3770     0.9170     2.0000 h5         1 DJ2       0.067800
     22 H2          -0.1000    -2.0380    -0.4030 h2         1 DJ2       0.122700
     23 H3           3.9250    -1.0180    -2.5060 h5         1 DJ2       0.046100
     24 H4          -1.6690    -0.8350     1.9430 h1         1 DJ2       0.054700
     25 H5          -3.7360    -1.7770     1.1120 h1         1 DJ2       0.056700
     26 H6          -3.4960    -0.7860    -1.4070 h1         1 DJ2       0.103700
     27 H7          -4.1350     0.5860     0.7070 h1         1 DJ2       0.035700
     28 H8          -2.4240     1.0660     0.7910 h1         1 DJ2       0.035700
     29 H9           3.9660     2.7800     1.1050 hn         1 DJ2       0.507000
     30 H10          5.2290     2.5020    -0.0440 hn         1 DJ2       0.507000
     31 H11         -3.1770     3.6690    -0.7270 hn         1 DJ2       0.400000
     32 H12         -4.7490     3.2170    -0.8020 hn         1 DJ2       0.400000
     33 H13         -0.4070    -2.6210     2.4870 ho         1 DJ2       0.515000
     34 H14         -2.2960    -3.6690     0.3480 ho         1 DJ2       0.524000
@<TRIPOS>BOND
     1     1     2 ar  
     2     1     6 ar  
     3     1    15 1   
     4     2     3 ar  
     5     2    14 1   
     6     3     5 ar  
     7     3    13 1   
     8     4    14 2   
     9     4    15 1   
    10     4    21 1   
    11     5     8 ar  
    12     6     8 ar  
    13     7     9 1   
    14     7    15 1   
    15     7    19 1   
    16     7    22 1   
    17     8    23 1   
    18     9    10 1   
    19     9    17 1   
    20     9    24 1   
    21    10    11 1   
    22    10    18 1   
    23    10    25 1   
    24    11    12 1   
    25    11    19 1   
    26    11    26 1   
    27    12    20 1   
    28    12    27 1   
    29    12    28 1   
    30    13    29 1   
    31    13    30 1   
    32    16    20 1   
    33    16    31 1   
    34    16    32 1   
    35    17    33 1   
    36    18    34 1   
@<TRIPOS>SUBSTRUCTURE
     1 DJ2         1 TEMP              0 ****  ****    0 ROOT
