@<TRIPOS>MOLECULE
DJ3
   52    52     1     0     0
SMALL
abcg2


@<TRIPOS>ATOM
      1 OAB        -10.0880    -0.5170    -0.1250 o          1 DJ3      -0.740500
      2 CAU         -9.7170     0.6230     0.2180 c          1 DJ3       0.717000
      3 OAC        -10.4490     1.6260     0.3560 o          1 DJ3      -0.740500
      4 CAR         -8.2250     0.8250     0.5350 c3         1 DJ3      -0.205400
      5 CAQ         -7.2870    -0.2510     0.0130 c3         1 DJ3      -0.051400
      6 CAS         -5.8300     0.0360     0.3640 c3         1 DJ3      -0.078400
      7 CAW         -4.8900    -1.0120    -0.1590 cx         1 DJ3       0.120300
      8 OAT         -4.7690    -2.2160     0.5810 op         1 DJ3      -0.429000
      9 CAV         -3.6370    -1.3460     0.5260 cx         1 DJ3       0.082500
     10 CAK         -2.4630    -1.8340    -0.2100 c2         1 DJ3      -0.166200
     11 CAG         -1.2050    -1.5670     0.1670 ce         1 DJ3      -0.201000
     12 CAE         -0.0360    -1.9820    -0.5720 ce         1 DJ3      -0.154000
     13 CAD          1.2220    -1.6650    -0.2160 cf         1 DJ3      -0.196000
     14 CAF          2.3840    -2.0560    -0.9850 cf         1 DJ3      -0.176000
     15 CAH          3.6550    -1.7110    -0.7350 c2         1 DJ3      -0.212200
     16 CAM          4.1630    -0.8610     0.3940 c3         1 DJ3      -0.012000
     17 CAI          5.4580    -1.3940     0.9380 c2         1 DJ3      -0.209200
     18 CAJ          6.6810    -0.9440     0.6610 c2         1 DJ3      -0.222200
     19 CAN          7.0490     0.2220    -0.2010 c3         1 DJ3      -0.043200
     20 CAP          7.8510     1.2770     0.5630 c3         1 DJ3      -0.072400
     21 CAO          8.2070     2.4820    -0.2980 c3         1 DJ3      -0.077400
     22 CAL          9.0240     3.5320     0.4440 c3         1 DJ3      -0.075400
     23 CAA          9.3390     4.7480    -0.4150 c3         1 DJ3      -0.088100
     24 HAY         -7.9130     1.8070     0.1620 hc         1 DJ3       0.014700
     25 HAX         -8.1230     0.8900     1.6260 hc         1 DJ3       0.014700
     26 HAV         -7.5760    -1.2220     0.4200 hc         1 DJ3       0.046200
     27 HAW         -7.3840    -0.3340    -1.0740 hc         1 DJ3       0.046200
     28 HAZ         -5.5280     0.9980    -0.0630 hc         1 DJ3       0.039200
     29 HA0         -5.7150     0.1290     1.4480 hc         1 DJ3       0.039200
     30 HA2         -4.9210    -1.1570    -1.2400 h1         1 DJ3       0.077700
     31 HA1         -3.4200    -0.8270     1.4590 h1         1 DJ3       0.084700
     32 HAK         -2.6480    -2.4050    -1.1160 ha         1 DJ3       0.179000
     33 HAG         -1.0340    -0.9930     1.0750 ha         1 DJ3       0.171000
     34 HAE         -0.2020    -2.5720    -1.4700 ha         1 DJ3       0.168000
     35 HAD          1.3730    -1.0710     0.6800 ha         1 DJ3       0.171000
     36 HAF          2.1900    -2.6720    -1.8580 ha         1 DJ3       0.168000
     37 HAH          4.4150    -2.0640    -1.4260 ha         1 DJ3       0.167000
     38 HAN          4.2890     0.1660     0.0390 hc         1 DJ3       0.053200
     39 HAO          3.4280    -0.8120     1.2000 hc         1 DJ3       0.053200
     40 HAI          5.3690    -2.2550     1.5930 ha         1 DJ3       0.169000
     41 HAJ          7.5210    -1.4590     1.1210 ha         1 DJ3       0.162000
     42 HAP          7.6520    -0.1320    -1.0450 hc         1 DJ3       0.044700
     43 HAQ          6.1610     0.6860    -0.6380 hc         1 DJ3       0.044700
     44 HAT          7.2770     1.6060     1.4350 hc         1 DJ3       0.038700
     45 HAU          8.7670     0.8220     0.9550 hc         1 DJ3       0.038700
     46 HAS          8.7630     2.1500    -1.1820 hc         1 DJ3       0.037700
     47 HAR          7.2850     2.9400    -0.6760 hc         1 DJ3       0.037700
     48 HAM          8.4800     3.8450     1.3410 hc         1 DJ3       0.036200
     49 HAL          9.9560     3.0800     0.7990 hc         1 DJ3       0.036200
     50 HAC          8.4240     5.2410    -0.7500 hc         1 DJ3       0.030700
     51 HAB          9.9300     5.4840     0.1300 hc         1 DJ3       0.030700
     52 HAA          9.9030     4.4650    -1.3060 hc         1 DJ3       0.030700
@<TRIPOS>BOND
     1     1     2 1   
     2     2     3 1   
     3     2     4 1   
     4     4     5 1   
     5     4    24 1   
     6     4    25 1   
     7     5     6 1   
     8     5    26 1   
     9     5    27 1   
    10     6     7 1   
    11     6    28 1   
    12     6    29 1   
    13     7     8 1   
    14     7     9 1   
    15     7    30 1   
    16     8     9 1   
    17     9    10 1   
    18     9    31 1   
    19    10    11 2   
    20    10    32 1   
    21    11    12 1   
    22    11    33 1   
    23    12    13 2   
    24    12    34 1   
    25    13    14 1   
    26    13    35 1   
    27    14    15 2   
    28    14    36 1   
    29    15    16 1   
    30    15    37 1   
    31    16    17 1   
    32    16    38 1   
    33    16    39 1   
    34    17    18 2   
    35    17    40 1   
    36    18    19 1   
    37    18    41 1   
    38    19    20 1   
    39    19    42 1   
    40    19    43 1   
    41    20    21 1   
    42    20    44 1   
    43    20    45 1   
    44    21    22 1   
    45    21    46 1   
    46    21    47 1   
    47    22    23 1   
    48    22    48 1   
    49    22    49 1   
    50    23    50 1   
    51    23    51 1   
    52    23    52 1   
@<TRIPOS>SUBSTRUCTURE
     1 DJ3         1 TEMP              0 ****  ****    0 ROOT
