@<TRIPOS>MOLECULE
DJ3
   52    52     1     0     0
SMALL
No Charge or Current Charge


@<TRIPOS>ATOM
      1 OAB         -9.7080     0.8830     1.1060 o          1 DJ3      -0.740500
      2 CAU         -9.0660     1.2470     0.1320 c          1 DJ3       0.717000
      3 OAC         -9.5240     1.3000    -0.9990 o          1 DJ3      -0.740500
      4 CAR         -7.5800     1.5980     0.3320 c3         1 DJ3      -0.205400
      5 CAQ         -6.7050     0.3330     0.1570 c3         1 DJ3      -0.051400
      6 CAS         -5.1950     0.6060     0.3420 c3         1 DJ3      -0.078400
      7 CAW         -4.3400    -0.6430     0.1620 cx         1 DJ3       0.120300
      8 OAT         -3.9370    -1.3400     1.3620 op         1 DJ3      -0.429000
      9 CAV         -2.9080    -0.6480     0.6190 cx         1 DJ3       0.082500
     10 CAK         -1.8960    -1.5140    -0.0490 c2         1 DJ3      -0.166200
     11 CAG         -0.5680    -1.3980     0.1700 ce         1 DJ3      -0.201000
     12 CAE          0.4340    -2.2460    -0.4820 ce         1 DJ3      -0.154000
     13 CAD          1.7740    -2.1460    -0.2780 cf         1 DJ3      -0.196000
     14 CAF          2.7710    -2.9880    -0.9270 cf         1 DJ3      -0.176000
     15 CAH          4.1080    -2.9020    -0.7300 c2         1 DJ3      -0.212200
     16 CAM          4.8270    -1.9310     0.1860 c3         1 DJ3      -0.012000
     17 CAI          6.3200    -2.2070     0.2230 c2         1 DJ3      -0.209200
     18 CAJ          7.3130    -1.3780    -0.1490 c2         1 DJ3      -0.222200
     19 CAN          7.1730     0.0160    -0.7310 c3         1 DJ3      -0.043200
     20 CAP          7.1340     1.1030     0.3640 c3         1 DJ3      -0.072400
     21 CAO          6.9840     2.5320    -0.2030 c3         1 DJ3      -0.077400
     22 CAL          6.9430     3.6170     0.8950 c3         1 DJ3      -0.075400
     23 CAA          6.7930     5.0420     0.3290 c3         1 DJ3      -0.088100
     24 HAY         -7.2450     2.3040    -0.4390 hc         1 DJ3       0.014700
     25 HAX         -7.4020     1.9470     1.3570 hc         1 DJ3       0.014700
     26 HAV         -7.0220    -0.4290     0.8800 hc         1 DJ3       0.046200
     27 HAW         -6.8750    -0.0880    -0.8430 hc         1 DJ3       0.046200
     28 HAZ         -4.8780     1.3640    -0.3850 hc         1 DJ3       0.039200
     29 HA0         -5.0260     1.0360     1.3370 hc         1 DJ3       0.039200
     30 HA2         -4.6110    -1.2760    -0.6830 h1         1 DJ3       0.077700
     31 HA1         -2.5180     0.2450     1.1090 h1         1 DJ3       0.084700
     32 HAK         -2.2880    -2.2660    -0.7370 ha         1 DJ3       0.179000
     33 HAG         -0.1930    -0.6420     0.8640 ha         1 DJ3       0.171000
     34 HAE          0.0650    -3.0050    -1.1760 ha         1 DJ3       0.168000
     35 HAD          2.1320    -1.3840     0.4180 ha         1 DJ3       0.171000
     36 HAF          2.3970    -3.7420    -1.6240 ha         1 DJ3       0.168000
     37 HAH          4.7630    -3.5840    -1.2770 ha         1 DJ3       0.167000
     38 HAN          4.6170    -0.9020    -0.1280 hc         1 DJ3       0.053200
     39 HAO          4.4250    -2.0190     1.2020 hc         1 DJ3       0.053200
     40 HAI          6.5690    -3.1910     0.6240 ha         1 DJ3       0.169000
     41 HAJ          8.3500    -1.7080    -0.0520 ha         1 DJ3       0.162000
     42 HAP          8.0100     0.2170    -1.4110 hc         1 DJ3       0.044700
     43 HAQ          6.2660     0.0900    -1.3430 hc         1 DJ3       0.044700
     44 HAT          6.2990     0.8960     1.0450 hc         1 DJ3       0.038700
     45 HAU          8.0540     1.0440     0.9590 hc         1 DJ3       0.038700
     46 HAS          7.8200     2.7390    -0.8840 hc         1 DJ3       0.037700
     47 HAR          6.0650     2.5880    -0.7990 hc         1 DJ3       0.037700
     48 HAM          6.1070     3.4140     1.5760 hc         1 DJ3       0.036200
     49 HAL          7.8620     3.5650     1.4920 hc         1 DJ3       0.036200
     50 HAC          5.8630     5.1360    -0.2450 hc         1 DJ3       0.030700
     51 HAB          6.7680     5.7760     1.1440 hc         1 DJ3       0.030700
     52 HAA          7.6340     5.2890    -0.3300 hc         1 DJ3       0.030700
@<TRIPOS>BOND
     1     1     2 1   
     2     2     3 1   
     3     2     4 1   
     4     4     5 1   
     5     4    24 1   
     6     4    25 1   
     7     5     6 1   
     8     5    26 1   
     9     5    27 1   
    10     6     7 1   
    11     6    28 1   
    12     6    29 1   
    13     7     8 1   
    14     7     9 1   
    15     7    30 1   
    16     8     9 1   
    17     9    10 1   
    18     9    31 1   
    19    10    11 2   
    20    10    32 1   
    21    11    12 1   
    22    11    33 1   
    23    12    13 2   
    24    12    34 1   
    25    13    14 1   
    26    13    35 1   
    27    14    15 2   
    28    14    36 1   
    29    15    16 1   
    30    15    37 1   
    31    16    17 1   
    32    16    38 1   
    33    16    39 1   
    34    17    18 2   
    35    17    40 1   
    36    18    19 1   
    37    18    41 1   
    38    19    20 1   
    39    19    42 1   
    40    19    43 1   
    41    20    21 1   
    42    20    44 1   
    43    20    45 1   
    44    21    22 1   
    45    21    46 1   
    46    21    47 1   
    47    22    23 1   
    48    22    48 1   
    49    22    49 1   
    50    23    50 1   
    51    23    51 1   
    52    23    52 1   
@<TRIPOS>SUBSTRUCTURE
     1 DJ3         1 TEMP              0 ****  ****    0 ROOT
