@<TRIPOS>MOLECULE
DJ6
   22    23     1     0     0
SMALL
abcg2


@<TRIPOS>ATOM
      1 C            4.9550     0.3850     0.5600 ca         1 DJ6      -0.136000
      2 N            4.7630    -1.7250    -0.5170 nb         1 DJ6      -0.642000
      3 O            0.8720     1.5940     0.7700 o          1 DJ6      -0.558100
      4 S           -3.4220     0.3880    -0.3270 ss         1 DJ6       0.307000
      5 CL          -1.7210     2.7830    -0.3320 cl         1 DJ6      -0.095000
      6 C1           3.5790     0.5620     0.5410 ca         1 DJ6      -0.098000
      7 CL1         -3.7700    -2.5450    -0.0490 cl         1 DJ6      -0.123000
      8 C2           2.7960    -0.4410    -0.0250 ca         1 DJ6      -0.072000
      9 C3           3.4540    -1.5640    -0.5390 ca         1 DJ6       0.285900
     10 C4           5.5070    -0.7660     0.0250 ca         1 DJ6       0.305900
     11 C5           0.5380     0.5320     0.2840 c          1 DJ6       0.644700
     12 C6          -0.8900     0.1780     0.0810 cc         1 DJ6      -0.176600
     13 C7          -1.4180    -1.1480     0.1360 cc         1 DJ6      -0.104000
     14 C8          -2.7570    -1.1770    -0.0630 cd         1 DJ6      -0.040000
     15 C9          -1.8700     1.1000    -0.1530 cd         1 DJ6       0.020000
     16 H            5.5910     1.1450     0.9920 ha         1 DJ6       0.126000
     17 H1           3.1450     1.4570     0.9540 ha         1 DJ6       0.153000
     18 HN1          1.0120    -1.2290    -0.5990 hn         1 DJ6       0.158000
     19 H3           2.8720    -2.3650    -0.9880 h4         1 DJ6       0.012100
     20 H4           6.5790    -0.9210     0.0310 h4         1 DJ6       0.022100
     21 H7          -0.8350    -2.0330     0.3500 ha         1 DJ6       0.150000
     22 N1           1.4050    -0.4300    -0.1230 ns         1 DJ6      -0.138000
@<TRIPOS>BOND
     1     1     6 ar  
     2     1    10 ar  
     3     1    16 1   
     4     2     9 ar  
     5     2    10 ar  
     6     3    11 2   
     7     4    14 1   
     8     4    15 1   
     9     5    15 1   
    10     6     8 ar  
    11     6    17 1   
    12     7    14 1   
    13     8     9 ar  
    14     8    22 1   
    15     9    19 1   
    16    10    20 1   
    17    11    12 1   
    18    11    22 1   
    19    12    13 1   
    20    12    15 2   
    21    13    14 2   
    22    13    21 1   
    23    18    22 1   
@<TRIPOS>SUBSTRUCTURE
     1 DJ6         1 TEMP              0 ****  ****    0 ROOT
