@<TRIPOS>MOLECULE
DJ6
   22    23     1     0     0
SMALL
No Charge or Current Charge


@<TRIPOS>ATOM
      1 C            5.0400     0.4270     0.3370 ca         1 DJ6      -0.136000
      2 N            4.7510    -1.9260    -0.1540 nb         1 DJ6      -0.642000
      3 O            0.8580     1.8080     0.4470 o          1 DJ6      -0.558100
      4 S           -3.5780     0.3170    -0.0310 ss         1 DJ6       0.307000
      5 Cl          -1.9650     2.8350     0.5420 cl         1 DJ6      -0.095000
      6 C1           3.6500     0.6370     0.3240 ca         1 DJ6      -0.098000
      7 Cl1         -3.5740    -2.6970    -0.6400 cl         1 DJ6      -0.123000
      8 C2           2.8060    -0.4670     0.0650 ca         1 DJ6      -0.072000
      9 C3           3.4130    -1.7220    -0.1660 ca         1 DJ6       0.285900
     10 C4           5.5470    -0.8610     0.0950 ca         1 DJ6       0.305900
     11 C5           0.4930     0.6650     0.2020 c          1 DJ6       0.644700
     12 C6          -0.9440     0.2620     0.0630 cc         1 DJ6      -0.176600
     13 C7          -1.3790    -1.0730    -0.2240 cc         1 DJ6      -0.104000
     14 C8          -2.7380    -1.2140    -0.3070 cd         1 DJ6      -0.040000
     15 C9          -2.0160     1.1300     0.1950 cd         1 DJ6       0.020000
     16 H            5.7230     1.2490     0.5320 ha         1 DJ6       0.126000
     17 H1           3.2650     1.6350     0.5120 ha         1 DJ6       0.153000
     18 HN1          0.9340    -1.2740    -0.1730 hn         1 DJ6       0.158000
     19 H3           2.8010    -2.6010    -0.3700 h4         1 DJ6       0.012100
     20 H4           6.6200    -1.0460     0.1010 h4         1 DJ6       0.022100
     21 H7          -0.7050    -1.9120    -0.3670 ha         1 DJ6       0.150000
     22 N1           1.3820    -0.3900     0.0240 ns         1 DJ6      -0.138000
@<TRIPOS>BOND
     1     1     6 ar  
     2     1    10 ar  
     3     1    16 1   
     4     2     9 ar  
     5     2    10 ar  
     6     3    11 2   
     7     4    14 1   
     8     4    15 1   
     9     5    15 1   
    10     6     8 ar  
    11     6    17 1   
    12     7    14 1   
    13     8     9 ar  
    14     8    22 1   
    15     9    19 1   
    16    10    20 1   
    17    11    12 1   
    18    11    22 1   
    19    12    13 1   
    20    12    15 2   
    21    13    14 2   
    22    13    21 1   
    23    18    22 1   
@<TRIPOS>SUBSTRUCTURE
     1 DJ6         1 TEMP              0 ****  ****    0 ROOT
