@<TRIPOS>MOLECULE
DJ8
   60    64     1     0     0
SMALL
abcg2


@<TRIPOS>ATOM
      1 N1         -28.1540     4.7880    10.9900 ns         1 DJ8      -0.169000
      2 C7         -31.7900     5.0500    10.6800 c3         1 DJ8       0.161300
      3 C8         -29.4620     4.6690    11.3900 c          1 DJ8       0.658100
      4 N2         -20.7950     0.9550    11.4730 nu         1 DJ8      -0.932100
      5 C9         -27.0860     4.4160    11.8240 ca         1 DJ8      -0.067000
      6 O1         -26.4700     2.7810    10.2650 os         1 DJ8      -0.353100
      7 C1         -32.1510     7.5140    11.2110 ca         1 DJ8      -0.039300
      8 C5         -33.3660     6.5000     9.3960 ca         1 DJ8      -0.093000
      9 C6         -32.4410     6.3870    10.4270 ca         1 DJ8      -0.115300
     10 N3         -21.9340     2.3970    15.0630 na         1 DJ8       0.083900
     11 C4         -34.0190     7.6930     9.1200 ca         1 DJ8      -0.112000
     12 C3         -33.7250     8.7940     9.9030 ca         1 DJ8       0.129000
     13 C2         -32.8040     8.7120    10.9360 ca         1 DJ8      -0.113000
     14 N4         -22.4860     2.9520    16.1550 nc         1 DJ8      -0.579100
     15 O          -29.7760     4.2570    12.4980 o          1 DJ8      -0.632100
     16 N          -30.3630     5.0700    10.4590 ns         1 DJ8      -0.528900
     17 CL         -34.5220    10.3050     9.5990 cl         1 DJ8      -0.206000
     18 C14        -26.2150     3.3840    11.4470 ca         1 DJ8       0.116100
     19 C13        -25.1660     3.0340    12.2830 ca         1 DJ8      -0.185000
     20 C15        -25.6820     1.6730     9.8580 c3         1 DJ8       0.132600
     21 C16        -24.3340     2.1030     9.2690 c3         1 DJ8       0.115600
     22 O2         -23.5360     0.9790     8.9680 os         1 DJ8      -0.449000
     23 C17        -22.7700     0.4830    10.0470 c3         1 DJ8       0.136600
     24 C18        -21.4850     1.2920    10.2470 c3         1 DJ8       0.200800
     25 C19        -21.1790     1.4250    12.6710 cc         1 DJ8       0.652900
     26 N5         -22.3000     2.1080    12.7400 nd         1 DJ8      -0.770000
     27 C24        -22.6900     2.5750    13.9300 cd         1 DJ8       0.441500
     28 C21        -20.7750     1.6970    15.0180 cd         1 DJ8       0.002000
     29 C20        -20.3700     1.1850    13.8360 cc         1 DJ8      -0.269000
     30 C23        -23.8180     3.2890    14.3310 cd         1 DJ8      -0.258800
     31 C22        -23.6080     3.4850    15.7100 cd         1 DJ8       0.417500
     32 C12        -24.9440     3.6890    13.4970 ca         1 DJ8       0.049200
     33 C11        -25.8160     4.7130    13.8670 ca         1 DJ8      -0.136000
     34 C10        -26.8630     5.0660    13.0310 ca         1 DJ8      -0.065000
     35 H1         -27.9560     4.9220    10.0100 hn         1 DJ8       0.153000
     36 H2         -31.9620     4.7310    11.7070 h1         1 DJ8       0.064200
     37 H3         -32.2600     4.3010    10.0370 h1         1 DJ8       0.064200
     38 H4         -19.9290     0.4460    11.4120 hn         1 DJ8       0.502000
     39 H5         -33.5920     5.6310     8.7890 ha         1 DJ8       0.114000
     40 H6         -34.7380     7.7560     8.3150 ha         1 DJ8       0.130000
     41 H7         -32.5930     9.5850    11.5410 ha         1 DJ8       0.128000
     42 H8         -30.0420     5.4120     9.5680 hn         1 DJ8       0.310500
     43 H9         -30.1350     7.4510    11.9500 hc         1 DJ8       0.052367
     44 H10        -31.2540     8.3460    12.9720 hc         1 DJ8       0.052367
     45 H11        -31.2800     6.5850    12.9560 hc         1 DJ8       0.052367
     46 H12        -24.4910     2.2380    12.0110 ha         1 DJ8       0.136000
     47 H13        -26.2690     1.1630     9.0940 h1         1 DJ8       0.061700
     48 H14        -25.5470     0.9660    10.6840 h1         1 DJ8       0.061700
     49 H15        -23.8230     2.7990     9.9430 h1         1 DJ8       0.061700
     50 H16        -24.5050     2.6390     8.3330 h1         1 DJ8       0.061700
     51 H17        -23.3450     0.4630    10.9780 h1         1 DJ8       0.057200
     52 H18        -22.5170    -0.5520     9.8060 h1         1 DJ8       0.057200
     53 H19        -20.7980     1.1070     9.4220 h1         1 DJ8       0.060200
     54 H20        -21.7090     2.3610    10.2460 h1         1 DJ8       0.060200
     55 H21        -20.2320     1.5860    15.9460 h4         1 DJ8       0.162000
     56 H22        -19.4490     0.6230    13.7740 ha         1 DJ8       0.139000
     57 H23        -24.2620     3.9940    16.4040 h4         1 DJ8       0.050800
     58 H24        -25.6690     5.2560    14.7920 ha         1 DJ8       0.115000
     59 H25        -27.5210     5.8770    13.3150 ha         1 DJ8       0.124000
     60 C          -31.1570     7.4700    12.3320 c3         1 DJ8      -0.056800
@<TRIPOS>BOND
     1     1     3 1   
     2     1     5 1   
     3     1    35 1   
     4     2     9 1   
     5     2    16 1   
     6     2    36 1   
     7     2    37 1   
     8     3    15 2   
     9     3    16 1   
    10     4    24 1   
    11     4    25 1   
    12     4    38 1   
    13     5    18 ar  
    14     5    34 ar  
    15     6    18 1   
    16     6    20 1   
    17     7     9 ar  
    18     7    13 ar  
    19     7    60 1   
    20     8     9 ar  
    21     8    11 ar  
    22     8    39 1   
    23    10    14 1   
    24    10    27 1   
    25    10    28 1   
    26    11    12 ar  
    27    11    40 1   
    28    12    13 ar  
    29    12    17 1   
    30    13    41 1   
    31    14    31 2   
    32    16    42 1   
    33    18    19 ar  
    34    19    32 ar  
    35    19    46 1   
    36    20    21 1   
    37    20    47 1   
    38    20    48 1   
    39    21    22 1   
    40    21    49 1   
    41    21    50 1   
    42    22    23 1   
    43    23    24 1   
    44    23    51 1   
    45    23    52 1   
    46    24    53 1   
    47    24    54 1   
    48    25    26 2   
    49    25    29 1   
    50    26    27 1   
    51    27    30 2   
    52    28    29 2   
    53    28    55 1   
    54    29    56 1   
    55    30    31 1   
    56    30    32 1   
    57    31    57 1   
    58    32    33 ar  
    59    33    34 ar  
    60    33    58 1   
    61    34    59 1   
    62    43    60 1   
    63    44    60 1   
    64    45    60 1   
@<TRIPOS>SUBSTRUCTURE
     1 DJ8         1 TEMP              0 ****  ****    0 ROOT
