@<TRIPOS>MOLECULE
DJ8
   60    64     1     0     0
SMALL
No Charge or Current Charge


@<TRIPOS>ATOM
      1 N1         -28.5710     4.2340    12.2330 ns         1 DJ8      -0.169000
      2 C7         -31.6890     6.1810    11.9610 c3         1 DJ8       0.161300
      3 C8         -29.6460     4.9550    12.7270 c          1 DJ8       0.658100
      4 N2         -20.6840     2.2630    11.2510 nu         1 DJ8      -0.932100
      5 C9         -27.4650     3.5970    12.8660 ca         1 DJ8      -0.067000
      6 O1         -26.7090     2.9600    10.6680 os         1 DJ8      -0.353100
      7 C1         -31.8590     7.7850     9.9580 ca         1 DJ8      -0.039300
      8 C5         -33.3580     5.8590    10.0910 ca         1 DJ8      -0.093000
      9 C6         -32.3110     6.6280    10.6420 ca         1 DJ8      -0.115300
     10 N3         -21.9420     0.9870    14.9260 na         1 DJ8       0.083900
     11 C4         -33.9560     6.2340     8.8770 ca         1 DJ8      -0.112000
     12 C3         -33.5110     7.3800     8.2050 ca         1 DJ8       0.129000
     13 C2         -32.4680     8.1510     8.7410 ca         1 DJ8      -0.113000
     14 N4         -22.5750     0.6330    16.0950 nc         1 DJ8      -0.579100
     15 O          -29.8580     5.1970    13.9060 o          1 DJ8      -0.632100
     16 N          -30.4820     5.3920    11.7310 ns         1 DJ8      -0.528900
     17 Cl         -34.2590     7.8520     6.6840 cl         1 DJ8      -0.206000
     18 C14        -26.5270     2.9360    12.0430 ca         1 DJ8       0.116100
     19 C13        -25.4290     2.2780    12.6270 ca         1 DJ8      -0.185000
     20 C15        -25.6830     2.5610     9.7230 c3         1 DJ8       0.132600
     21 C16        -24.5430     3.6190     9.7070 c3         1 DJ8       0.115600
     22 O2         -23.4610     3.1530     8.8590 os         1 DJ8      -0.449000
     23 C17        -22.4980     2.2580     9.4720 c3         1 DJ8       0.136600
     24 C18        -21.4380     3.0840    10.2640 c3         1 DJ8       0.200800
     25 C19        -21.1280     1.8720    12.4760 cc         1 DJ8       0.652900
     26 N5         -22.3700     2.1560    12.7410 nd         1 DJ8      -0.770000
     27 C24        -22.7090     1.6530    13.9810 cd         1 DJ8       0.441500
     28 C21        -20.6030     0.7360    14.5850 cd         1 DJ8       0.002000
     29 C20        -20.2170     1.1850    13.3290 cc         1 DJ8      -0.269000
     30 C23        -23.9810     1.7290    14.5780 cd         1 DJ8      -0.258800
     31 C22        -23.8120     1.1010    15.8560 cd         1 DJ8       0.417500
     32 C12        -25.2000     2.3280    14.0120 ca         1 DJ8       0.049200
     33 C11        -26.1330     2.9840    14.8310 ca         1 DJ8      -0.136000
     34 C10        -27.2630     3.6050    14.2670 ca         1 DJ8      -0.065000
     35 H1         -28.5640     4.1360    11.2270 hn         1 DJ8       0.153000
     36 H2         -31.4410     7.0520    12.5810 h1         1 DJ8       0.064200
     37 H3         -32.4070     5.5700    12.5240 h1         1 DJ8       0.064200
     38 H4         -19.6970     2.0790    11.0820 hn         1 DJ8       0.502000
     39 H5         -33.7090     4.9670    10.6050 ha         1 DJ8       0.114000
     40 H6         -34.7630     5.6380     8.4590 ha         1 DJ8       0.130000
     41 H7         -32.1340     9.0360     8.2050 ha         1 DJ8       0.128000
     42 H8         -30.2420     5.1500    10.7790 hn         1 DJ8       0.310500
     43 H9         -29.8270     8.0440    10.7000 hc         1 DJ8       0.052367
     44 H10        -30.4400     9.4400     9.8110 hc         1 DJ8       0.052367
     45 H11        -31.0170     9.1250    11.4500 hc         1 DJ8       0.052367
     46 H12        -24.7340     1.7290    12.0070 ha         1 DJ8       0.136000
     47 H13        -26.1120     2.5090     8.7150 h1         1 DJ8       0.061700
     48 H14        -25.2940     1.5620     9.9550 h1         1 DJ8       0.061700
     49 H15        -24.1900     3.8160    10.7280 h1         1 DJ8       0.061700
     50 H16        -24.9520     4.5570     9.3120 h1         1 DJ8       0.061700
     51 H17        -22.9990     1.5470    10.1410 h1         1 DJ8       0.057200
     52 H18        -21.9770     1.6720     8.7040 h1         1 DJ8       0.057200
     53 H19        -20.7430     3.5350     9.5430 h1         1 DJ8       0.060200
     54 H20        -21.9370     3.9140    10.7820 h1         1 DJ8       0.060200
     55 H21        -19.9790     0.2110    15.2990 h4         1 DJ8       0.162000
     56 H22        -19.2050     1.0150    12.9820 ha         1 DJ8       0.139000
     57 H23        -24.5700     0.9650    16.6180 h4         1 DJ8       0.050800
     58 H24        -25.9790     3.0310    15.9060 ha         1 DJ8       0.115000
     59 H25        -27.9570     4.1040    14.9350 ha         1 DJ8       0.124000
     60 C          -30.7250     8.6440    10.5100 c3         1 DJ8      -0.056800
@<TRIPOS>BOND
     1     1     3 1   
     2     1     5 1   
     3     1    35 1   
     4     2     9 1   
     5     2    16 1   
     6     2    36 1   
     7     2    37 1   
     8     3    15 2   
     9     3    16 1   
    10     4    24 1   
    11     4    25 1   
    12     4    38 1   
    13     5    18 ar  
    14     5    34 ar  
    15     6    18 1   
    16     6    20 1   
    17     7     9 ar  
    18     7    13 ar  
    19     7    60 1   
    20     8     9 ar  
    21     8    11 ar  
    22     8    39 1   
    23    10    14 1   
    24    10    27 1   
    25    10    28 1   
    26    11    12 ar  
    27    11    40 1   
    28    12    13 ar  
    29    12    17 1   
    30    13    41 1   
    31    14    31 2   
    32    16    42 1   
    33    18    19 ar  
    34    19    32 ar  
    35    19    46 1   
    36    20    21 1   
    37    20    47 1   
    38    20    48 1   
    39    21    22 1   
    40    21    49 1   
    41    21    50 1   
    42    22    23 1   
    43    23    24 1   
    44    23    51 1   
    45    23    52 1   
    46    24    53 1   
    47    24    54 1   
    48    25    26 2   
    49    25    29 1   
    50    26    27 1   
    51    27    30 2   
    52    28    29 2   
    53    28    55 1   
    54    29    56 1   
    55    30    31 1   
    56    30    32 1   
    57    31    57 1   
    58    32    33 ar  
    59    33    34 ar  
    60    33    58 1   
    61    34    59 1   
    62    43    60 1   
    63    44    60 1   
    64    45    60 1   
@<TRIPOS>SUBSTRUCTURE
     1 DJ8         1 TEMP              0 ****  ****    0 ROOT
