@<TRIPOS>MOLECULE
DJ9
   50    54     1     0     0
SMALL
No Charge or Current Charge


@<TRIPOS>ATOM
      1 C1           4.5740     4.0500     0.0160 c3         1 DJ9       0.149900
      2 C10         -0.6700    -3.0890    -0.3490 ca         1 DJ9      -0.055200
      3 C11         -2.1510    -1.4740    -0.0840 cc         1 DJ9       0.484400
      4 C12         -3.4470    -0.7880     0.0430 ca         1 DJ9      -0.109900
      5 C13         -3.4860     0.6180     0.2490 ca         1 DJ9      -0.070000
      6 C14         -4.7350     1.2420     0.3660 ca         1 DJ9      -0.061200
      7 C15         -6.4300     2.7710     0.6230 cc         1 DJ9      -0.152100
      8 C16         -6.9530     1.4970     0.4480 cd         1 DJ9      -0.242200
      9 C17         -5.8970     0.5330     0.2860 ca         1 DJ9      -0.082800
     10 C18         -5.9160    -0.8500     0.0850 ca         1 DJ9      -0.060000
     11 C19         -4.6740    -1.5100    -0.0370 ca         1 DJ9      -0.131000
     12 C2           3.9580     1.6170     0.2080 ca         1 DJ9       0.041100
     13 C20          0.0040    -1.9030    -0.2000 ca         1 DJ9       0.034400
     14 C21          3.5880    -0.7870     0.5190 ca         1 DJ9      -0.190000
     15 C22          4.4040     0.3540     0.6660 ca         1 DJ9       0.138100
     16 C23          6.2080    -0.9560     1.7550 c3         1 DJ9       0.146400
     17 C3           2.6730     1.7170    -0.4080 ca         1 DJ9       0.138100
     18 C4           0.9100     3.1100    -1.4760 c3         1 DJ9       0.146400
     19 C5           1.8790     0.5540    -0.5450 ca         1 DJ9      -0.190000
     20 C6           2.3060    -0.7150    -0.0810 cp         1 DJ9      -0.082500
     21 C7           1.4410    -1.9470    -0.2340 cp         1 DJ9       0.476500
     22 C8           1.3920    -4.2770    -0.5330 ca         1 DJ9       0.355900
     23 C9          -0.0120    -4.3080    -0.5220 ca         1 DJ9      -0.170000
     24 N1           2.1030    -3.1310    -0.3880 nb         1 DJ9      -0.701000
     25 N2          -2.0030    -2.8370    -0.2840 na         1 DJ9      -0.303600
     26 N3          -5.0300     2.5830     0.5670 na         1 DJ9      -0.217700
     27 N4          -0.9450    -0.8750    -0.0250 nd         1 DJ9      -0.581100
     28 O1           4.8340     2.6880     0.4000 os         1 DJ9      -0.330100
     29 O2           2.2060     2.9360    -0.8740 os         1 DJ9      -0.327600
     30 O3           5.6550     0.2770     1.2590 os         1 DJ9      -0.327600
     31 H1           5.4260     4.6860     0.2870 h1         1 DJ9       0.032700
     32 H2           4.4290     4.1310    -1.0690 h1         1 DJ9       0.032700
     33 H3           3.6870     4.4410     0.5310 h1         1 DJ9       0.032700
     34 H4          -2.5730     1.2050     0.3160 ha         1 DJ9       0.137000
     35 H5          -6.9050     3.7370     0.7740 h4         1 DJ9       0.215000
     36 H6          -8.0160     1.2650     0.4360 ha         1 DJ9       0.209000
     37 H7          -6.8550    -1.3960     0.0240 ha         1 DJ9       0.119000
     38 H8          -4.6760    -2.5850    -0.1940 ha         1 DJ9       0.101000
     39 H9           3.9320    -1.7530     0.8780 ha         1 DJ9       0.147500
     40 H10          5.5740    -1.3780     2.5450 h1         1 DJ9       0.040367
     41 H11          6.3070    -1.6920     0.9470 h1         1 DJ9       0.040367
     42 H12          7.2050    -0.7800     2.1780 h1         1 DJ9       0.040367
     43 H13          0.7580     4.1620    -1.7500 h1         1 DJ9       0.040367
     44 H14          0.8170     2.5060    -2.3870 h1         1 DJ9       0.040367
     45 H15          0.1130     2.8240    -0.7770 h1         1 DJ9       0.040367
     46 H16          0.9130     0.6140    -1.0330 ha         1 DJ9       0.147500
     47 H17          1.9670    -5.1940    -0.6580 h4         1 DJ9       0.019100
     48 H18         -0.5520    -5.2430    -0.6370 ha         1 DJ9       0.128000
     49 H19         -2.7550    -3.5070    -0.3630 hn         1 DJ9       0.362000
     50 H20         -4.3370     3.3210     0.6610 hn         1 DJ9       0.353000
@<TRIPOS>BOND
     1     1    28 1   
     2     1    31 1   
     3     1    32 1   
     4     1    33 1   
     5     2    13 ar  
     6     2    23 ar  
     7     2    25 1   
     8     3     4 1   
     9     3    25 1   
    10     3    27 2   
    11     4     5 ar  
    12     4    11 ar  
    13     5     6 ar  
    14     5    34 1   
    15     6     9 ar  
    16     6    26 1   
    17     7     8 2   
    18     7    26 1   
    19     7    35 1   
    20     8     9 1   
    21     8    36 1   
    22     9    10 ar  
    23    10    11 ar  
    24    10    37 1   
    25    11    38 1   
    26    12    15 ar  
    27    12    17 ar  
    28    12    28 1   
    29    13    21 ar  
    30    13    27 1   
    31    14    15 ar  
    32    14    20 ar  
    33    14    39 1   
    34    15    30 1   
    35    16    30 1   
    36    16    40 1   
    37    16    41 1   
    38    16    42 1   
    39    17    19 ar  
    40    17    29 1   
    41    18    29 1   
    42    18    43 1   
    43    18    44 1   
    44    18    45 1   
    45    19    20 ar  
    46    19    46 1   
    47    20    21 1   
    48    21    24 ar  
    49    22    23 ar  
    50    22    24 ar  
    51    22    47 1   
    52    23    48 1   
    53    25    49 1   
    54    26    50 1   
@<TRIPOS>SUBSTRUCTURE
     1 DJ9         1 TEMP              0 ****  ****    0 ROOT
