@<TRIPOS>MOLECULE
DJ9
   50    54     1     0     0
SMALL
abcg2


@<TRIPOS>ATOM
      1 C1           4.7840     3.4860     0.8960 c3         1 DJ9       0.149900
      2 C10         -0.6780    -3.1120     0.1990 ca         1 DJ9      -0.055200
      3 C11         -2.1290    -1.4660     0.0380 cc         1 DJ9       0.484400
      4 C12         -3.4100    -0.7730    -0.0330 ca         1 DJ9      -0.109900
      5 C13         -3.4050     0.6130    -0.1240 ca         1 DJ9      -0.070000
      6 C14         -4.6270     1.2640    -0.1870 ca         1 DJ9      -0.061200
      7 C15         -6.2630     2.7670    -0.3110 cc         1 DJ9      -0.152100
      8 C16         -6.8890     1.5530    -0.2430 cd         1 DJ9      -0.242200
      9 C17         -5.8610     0.5700    -0.1620 ca         1 DJ9      -0.082800
     10 C18         -5.8410    -0.8270    -0.0710 ca         1 DJ9      -0.060000
     11 C19         -4.6310    -1.4810    -0.0080 ca         1 DJ9      -0.131000
     12 C2           3.7810     1.6780    -0.1920 ca         1 DJ9       0.041100
     13 C20         -0.0290    -1.8690     0.0920 ca         1 DJ9       0.034400
     14 C21          3.5750    -0.7050     0.1560 ca         1 DJ9      -0.190000
     15 C22          4.3650     0.4340     0.0640 ca         1 DJ9       0.138100
     16 C23          6.3620    -0.7870     0.4360 c3         1 DJ9       0.146400
     17 C3           2.3950     1.7690    -0.3340 ca         1 DJ9       0.138100
     18 C4           0.5180     3.1590    -0.7300 c3         1 DJ9       0.146400
     19 C5           1.6030     0.6290    -0.2410 ca         1 DJ9      -0.190000
     20 C6           2.1900    -0.6110     0.0060 cp         1 DJ9      -0.082500
     21 C7           1.3770    -1.8430     0.1060 cp         1 DJ9       0.476500
     22 C8           1.3990    -4.1560     0.3220 ca         1 DJ9       0.355900
     23 C9           0.0240    -4.3000     0.3170 ca         1 DJ9      -0.170000
     24 N1           2.0380    -2.9910     0.2220 nb         1 DJ9      -0.701000
     25 N2          -2.0060    -2.8190     0.1610 na         1 DJ9      -0.303600
     26 N3          -4.9110     2.5950    -0.2780 na         1 DJ9      -0.217700
     27 N4          -0.9630    -0.8730    -0.0050 nd         1 DJ9      -0.581100
     28 O1           4.5570     2.7850    -0.3200 os         1 DJ9      -0.330100
     29 O2           1.9130     3.0030    -0.5690 os         1 DJ9      -0.327600
     30 O3           5.7040     0.4410     0.1980 os         1 DJ9      -0.327600
     31 H1           5.4180     4.3380     0.6610 h1         1 DJ9       0.032700
     32 H2           3.8510     3.8530     1.3320 h1         1 DJ9       0.032700
     33 H3           5.2940     2.8620     1.6340 h1         1 DJ9       0.032700
     34 H4          -2.4710     1.1610    -0.1420 ha         1 DJ9       0.137000
     35 H5          -6.6860     3.7560    -0.3810 h4         1 DJ9       0.215000
     36 H6          -7.9540     1.3870    -0.2480 ha         1 DJ9       0.209000
     37 H7          -6.7630    -1.3930    -0.0500 ha         1 DJ9       0.119000
     38 H8          -4.6410    -2.5610     0.0580 ha         1 DJ9       0.101000
     39 H9           4.0120    -1.6730     0.3490 ha         1 DJ9       0.147500
     40 H10          6.0430    -1.2480     1.3750 h1         1 DJ9       0.040367
     41 H11          6.2030    -1.5010    -0.3760 h1         1 DJ9       0.040367
     42 H12          7.4230    -0.5590     0.5000 h1         1 DJ9       0.040367
     43 H13          0.3440     4.2180    -0.9020 h1         1 DJ9       0.040367
     44 H14          0.1410     2.5970    -1.5880 h1         1 DJ9       0.040367
     45 H15         -0.0340     2.8540     0.1640 h1         1 DJ9       0.040367
     46 H16          0.5310     0.6940    -0.3520 ha         1 DJ9       0.147500
     47 H17          2.0280    -5.0340     0.4130 h4         1 DJ9       0.019100
     48 H18         -0.4500    -5.2680     0.4020 ha         1 DJ9       0.128000
     49 H19         -2.7530    -3.4920     0.2200 hn         1 DJ9       0.362000
     50 H20         -4.2340     3.3390    -0.3180 hn         1 DJ9       0.353000
@<TRIPOS>BOND
     1     1    28 1   
     2     1    31 1   
     3     1    32 1   
     4     1    33 1   
     5     2    13 ar  
     6     2    23 ar  
     7     2    25 1   
     8     3     4 1   
     9     3    25 1   
    10     3    27 2   
    11     4     5 ar  
    12     4    11 ar  
    13     5     6 ar  
    14     5    34 1   
    15     6     9 ar  
    16     6    26 1   
    17     7     8 2   
    18     7    26 1   
    19     7    35 1   
    20     8     9 1   
    21     8    36 1   
    22     9    10 ar  
    23    10    11 ar  
    24    10    37 1   
    25    11    38 1   
    26    12    15 ar  
    27    12    17 ar  
    28    12    28 1   
    29    13    21 ar  
    30    13    27 1   
    31    14    15 ar  
    32    14    20 ar  
    33    14    39 1   
    34    15    30 1   
    35    16    30 1   
    36    16    40 1   
    37    16    41 1   
    38    16    42 1   
    39    17    19 ar  
    40    17    29 1   
    41    18    29 1   
    42    18    43 1   
    43    18    44 1   
    44    18    45 1   
    45    19    20 ar  
    46    19    46 1   
    47    20    21 1   
    48    21    24 ar  
    49    22    23 ar  
    50    22    24 ar  
    51    22    47 1   
    52    23    48 1   
    53    25    49 1   
    54    26    50 1   
@<TRIPOS>SUBSTRUCTURE
     1 DJ9         1 TEMP              0 ****  ****    0 ROOT
