@<TRIPOS>MOLECULE
DJB
   33    33     1     0     0
SMALL
bcc


@<TRIPOS>ATOM
      1 C11          4.5200    -1.0050     0.1800 c3         1 DJB      -0.181100
      2 C10          3.1810    -0.8800    -0.5040 c          1 DJB       0.668100
      3 O10          3.0890    -0.7940    -1.7210 o          1 DJB      -0.608100
      4 N2           2.1170    -0.8890     0.3210 ns         1 DJB      -0.561900
      5 C2           0.7530    -0.7400    -0.1110 c6         1 DJB       0.085700
      6 C13          1.9810     3.6890    -0.6740 c3         1 DJB      -0.157100
      7 C12          1.0990     2.8120     0.1640 c          1 DJB       0.648100
      8 O12          0.5530     3.1520     1.1840 o          1 DJB      -0.558000
      9 C3           0.1810     0.6190     0.2870 c6         1 DJB       0.132100
     10 O3           0.9820     1.6000    -0.3700 os         1 DJB      -0.399900
     11 C4          -1.2780     0.7230    -0.1370 c6         1 DJB       0.131100
     12 O4          -1.3490     0.7250    -1.5350 oh         1 DJB      -0.650800
     13 C5          -2.0400    -0.4540     0.4790 c6         1 DJB      -0.039900
     14 C6          -3.5120    -0.5340     0.0090 c          1 DJB       0.945600
     15 O6B         -4.3490    -0.9310     0.8250 o          1 DJB      -0.805800
     16 O6A         -3.7280    -0.2080    -1.1880 o          1 DJB      -0.805800
     17 O5          -1.4560    -1.6950     0.0930 os         1 DJB      -0.394600
     18 C1          -0.1190    -1.8600     0.4660 c6         1 DJB       0.324900
     19 O1           0.0540    -1.8650     1.8490 oh         1 DJB      -0.640800
     20 H1           5.0110    -1.9190    -0.1560 hc         1 DJB       0.050700
     21 H2           5.1550    -0.1700    -0.1120 hc         1 DJB       0.050700
     22 H3           4.4570    -1.0280     1.2660 hc         1 DJB       0.050700
     23 H4           2.2800    -0.9530     1.3140 hn         1 DJB       0.313500
     24 H5           0.7330    -0.8340    -1.1970 h1         1 DJB       0.124700
     25 H6           2.1870     4.6230    -0.1610 hc         1 DJB       0.061367
     26 H7           2.9200     3.1890    -0.9090 hc         1 DJB       0.061367
     27 H8           1.4880     3.9120    -1.6220 hc         1 DJB       0.061367
     28 H9           0.2520     0.7460     1.3710 h1         1 DJB       0.064700
     29 H10         -1.7070     1.6430     0.2920 h1         1 DJB       0.041700
     30 H11         -2.2680     0.4090    -1.7140 ho         1 DJB       0.478000
     31 H12         -2.0220    -0.3450     1.5690 h1         1 DJB       0.043700
     32 H14          0.1860    -2.8150     0.0250 h2         1 DJB       0.053700
     33 H15         -0.2960    -2.6860     2.2110 ho         1 DJB       0.412000
@<TRIPOS>BOND
     1     1     2 1   
     2     1    20 1   
     3     1    21 1   
     4     1    22 1   
     5     2     3 2   
     6     2     4 1   
     7     4     5 1   
     8     4    23 1   
     9     5     9 1   
    10     5    18 1   
    11     5    24 1   
    12     6     7 1   
    13     6    25 1   
    14     6    26 1   
    15     6    27 1   
    16     7     8 2   
    17     7    10 1   
    18     9    10 1   
    19     9    11 1   
    20     9    28 1   
    21    11    12 1   
    22    11    13 1   
    23    11    29 1   
    24    12    30 1   
    25    13    14 1   
    26    13    17 1   
    27    13    31 1   
    28    14    15 1   
    29    14    16 1   
    30    17    18 1   
    31    18    19 1   
    32    18    32 1   
    33    19    33 1   
@<TRIPOS>SUBSTRUCTURE
     1 DJB         1 TEMP              0 ****  ****    0 ROOT
