@<TRIPOS>MOLECULE
DJB
   33    33     1     0     0
SMALL
No Charge or Current Charge


@<TRIPOS>ATOM
      1 C11          4.6360    -1.0020     0.2620 c3         1 DJB      -0.181100
      2 C10          3.3400    -0.7360    -0.4930 c          1 DJB       0.601100
      3 O10          3.3210    -0.3140    -1.6400 o          1 DJB      -0.608100
      4 N2           2.1950    -1.0260     0.2100 ns         1 DJB      -0.494900
      5 C2           0.8030    -0.8050    -0.2560 c6         1 DJB       0.085700
      6 C13          1.8820     3.8760    -0.6000 c3         1 DJB      -0.157100
      7 C12          0.9510     2.9270     0.1440 c          1 DJB       0.599100
      8 O12          0.2610     3.2630     1.0970 o          1 DJB      -0.509000
      9 C3           0.2550     0.5760     0.2300 c6         1 DJB       0.155300
     10 O3           1.0620     1.6460    -0.3220 os         1 DJB      -0.423100
     11 C4          -1.2620     0.7400    -0.1380 c6         1 DJB       0.154300
     12 O4          -1.4520     0.7820    -1.5680 oh         1 DJB      -0.773000
     13 C5          -2.0450    -0.4480     0.4660 c6         1 DJB      -0.016700
     14 C6          -3.5870    -0.2540     0.2720 c          1 DJB       0.735000
     15 O6B         -4.2090     0.0170     1.2910 o          1 DJB      -0.700500
     16 O6A         -4.1190    -0.9270    -0.6030 o          1 DJB      -0.700500
     17 O5          -1.5150    -1.6910    -0.0980 os         1 DJB      -0.441000
     18 C1          -0.1340    -1.9680     0.2130 c6         1 DJB       0.371300
     19 O1          -0.0460    -2.1910     1.6200 oh         1 DJB      -0.703000
     20 H1           4.6410    -2.0410     0.6110 hc         1 DJB       0.050700
     21 H2           5.5280    -0.7710    -0.3320 hc         1 DJB       0.050700
     22 H3           4.6210    -0.4410     1.2040 hc         1 DJB       0.050700
     23 H4           2.3210    -1.3950     1.1460 hn         1 DJB       0.313500
     24 H5           0.7980    -0.8070    -1.3550 h1         1 DJB       0.124700
     25 H6           1.8570     4.8940    -0.1970 hc         1 DJB       0.061367
     26 H7           2.8940     3.4580    -0.5900 hc         1 DJB       0.061367
     27 H8           1.6320     3.8510    -1.6660 hc         1 DJB       0.061367
     28 H9           0.3500     0.6070     1.3260 h1         1 DJB       0.064700
     29 H10         -1.6400     1.6670     0.3170 h1         1 DJB       0.041700
     30 H11         -1.7750    -0.1190    -1.8200 ho         1 DJB       0.577000
     31 H12         -1.8800    -0.4540     1.5540 h1         1 DJB       0.043700
     32 H14          0.1660    -2.8880    -0.3120 h2         1 DJB       0.053700
     33 H15         -0.7940    -2.7920     1.8210 ho         1 DJB       0.451000
@<TRIPOS>BOND
     1     1     2 1   
     2     1    20 1   
     3     1    21 1   
     4     1    22 1   
     5     2     3 2   
     6     2     4 1   
     7     4     5 1   
     8     4    23 1   
     9     5     9 1   
    10     5    18 1   
    11     5    24 1   
    12     6     7 1   
    13     6    25 1   
    14     6    26 1   
    15     6    27 1   
    16     7     8 2   
    17     7    10 1   
    18     9    10 1   
    19     9    11 1   
    20     9    28 1   
    21    11    12 1   
    22    11    13 1   
    23    11    29 1   
    24    12    30 1   
    25    13    14 1   
    26    13    17 1   
    27    13    31 1   
    28    14    15 1   
    29    14    16 1   
    30    17    18 1   
    31    18    19 1   
    32    18    32 1   
    33    19    33 1   
@<TRIPOS>SUBSTRUCTURE
     1 DJB         1 TEMP              0 ****  ****    0 ROOT
