@<TRIPOS>MOLECULE
DJC
   33    34     1     0     0
SMALL
abcg2


@<TRIPOS>ATOM
      1 C27          6.2680    -0.0850    -0.1140 c          1 DJC       0.572900
      2 C28          4.7840    -0.1780     0.0600 c3         1 DJC      -0.203400
      3 C29          4.0770     1.0740    -0.4780 c3         1 DJC      -0.023100
      4 C30          2.5840     0.9370    -0.3910 ca         1 DJC      -0.070300
      5 C31          1.8990     1.3080     0.7630 ca         1 DJC      -0.107000
      6 C32          0.5260     1.1390     0.8610 ca         1 DJC      -0.079000
      7 C33         -0.1950     0.5900    -0.1950 cp         1 DJC      -0.070000
      8 C34          0.4820     0.2260    -1.3540 ca         1 DJC      -0.079000
      9 C35          1.8550     0.3990    -1.4470 ca         1 DJC      -0.107000
     10 C36         -1.6720     0.4580    -0.0960 cp         1 DJC       0.047000
     11 C37         -2.3190    -0.7520     0.1840 ca         1 DJC      -0.205300
     12 C38         -3.7070    -0.7980     0.2630 ca         1 DJC      -0.037000
     13 C39         -4.4700     0.3420     0.0700 ca         1 DJC      -0.161000
     14 C40         -3.8150     1.5260    -0.1980 ca         1 DJC       0.203000
     15 C41         -2.4380     1.6020    -0.2820 ca         1 DJC      -0.155000
     16 C42         -1.5260    -2.0030     0.4120 c3         1 DJC       0.362300
     17 F           -4.5320     2.6390    -0.3840 f          1 DJC      -0.168000
     18 F1          -2.2930    -3.0190     0.8250 f          1 DJC      -0.112000
     19 F2          -0.9080    -2.4230    -0.7010 f          1 DJC      -0.112000
     20 F3          -0.5760    -1.8380     1.3420 f          1 DJC      -0.112000
     21 O15          7.0830    -0.2830     0.7520 o          1 DJC      -0.510100
     22 H1           6.5890     0.1810    -1.1380 h4         1 DJC      -0.020800
     23 H2           4.4480    -1.0480    -0.5150 hc         1 DJC       0.073700
     24 H3           4.5360    -0.3550     1.1080 hc         1 DJC       0.073700
     25 H4           4.4070     1.9470     0.0900 hc         1 DJC       0.051200
     26 H5           4.3740     1.2420    -1.5160 hc         1 DJC       0.051200
     27 H6           2.4420     1.7370     1.5970 ha         1 DJC       0.116500
     28 H7           0.0130     1.4390     1.7660 ha         1 DJC       0.121500
     29 H8          -0.0630    -0.1770    -2.1970 ha         1 DJC       0.121500
     30 H9           2.3640     0.1140    -2.3600 ha         1 DJC       0.116500
     31 H10         -4.2200    -1.7230     0.4810 ha         1 DJC       0.137000
     32 H11         -5.5480     0.3040     0.1310 ha         1 DJC       0.141000
     33 H12         -1.9590     2.5480    -0.5000 ha         1 DJC       0.143000
@<TRIPOS>BOND
     1     1     2 1   
     2     1    21 2   
     3     1    22 1   
     4     2     3 1   
     5     2    23 1   
     6     2    24 1   
     7     3     4 1   
     8     3    25 1   
     9     3    26 1   
    10     4     5 ar  
    11     4     9 ar  
    12     5     6 ar  
    13     5    27 1   
    14     6     7 ar  
    15     6    28 1   
    16     7     8 ar  
    17     7    10 1   
    18     8     9 ar  
    19     8    29 1   
    20     9    30 1   
    21    10    11 ar  
    22    10    15 ar  
    23    11    12 ar  
    24    11    16 1   
    25    12    13 ar  
    26    12    31 1   
    27    13    14 ar  
    28    13    32 1   
    29    14    15 ar  
    30    14    17 1   
    31    15    33 1   
    32    16    18 1   
    33    16    19 1   
    34    16    20 1   
@<TRIPOS>SUBSTRUCTURE
     1 DJC         1 TEMP              0 ****  ****    0 ROOT
