@<TRIPOS>MOLECULE
DJC
   33    34     1     0     0
SMALL
No Charge or Current Charge


@<TRIPOS>ATOM
      1 C27          6.3700    -0.0250    -0.0280 c          1 DJC       0.572900
      2 C28          4.8540    -0.1620     0.1160 c3         1 DJC      -0.203400
      3 C29          4.1140     1.0270    -0.5360 c3         1 DJC      -0.023100
      4 C30          2.6030     0.8890    -0.4170 ca         1 DJC      -0.070300
      5 C31          1.9310     1.3900     0.7140 ca         1 DJC      -0.107000
      6 C32          0.5370     1.2570     0.8260 ca         1 DJC      -0.079000
      7 C33         -0.2160     0.6130    -0.1830 cp         1 DJC      -0.070000
      8 C34          0.4690     0.1250    -1.3200 ca         1 DJC      -0.079000
      9 C35          1.8640     0.2570    -1.4350 ca         1 DJC      -0.107000
     10 C36         -1.6960     0.4830    -0.0570 cp         1 DJC       0.047000
     11 C37         -2.3560    -0.7750     0.0990 ca         1 DJC      -0.205300
     12 C38         -3.7710    -0.8050     0.1800 ca         1 DJC      -0.037000
     13 C39         -4.5190     0.3820     0.1320 ca         1 DJC      -0.161000
     14 C40         -3.8690     1.6120     0.0030 ca         1 DJC       0.203000
     15 C41         -2.4740     1.6630    -0.0910 ca         1 DJC      -0.155000
     16 C42         -1.5760    -2.1010     0.1900 c3         1 DJC       0.362300
     17 F           -4.5890     2.7540    -0.0400 f          1 DJC      -0.168000
     18 F1          -2.3170    -3.1100     0.7040 f          1 DJC      -0.112000
     19 F2          -1.1560    -2.5150    -1.0260 f          1 DJC      -0.112000
     20 F3          -0.4820    -2.0050     0.9800 f          1 DJC      -0.112000
     21 O15          7.0590     0.6410     0.7360 o          1 DJC      -0.510100
     22 H1           6.8240    -0.5740    -0.8830 h4         1 DJC      -0.020800
     23 H2           4.5380    -1.0740    -0.4040 hc         1 DJC       0.073700
     24 H3           4.5920    -0.2090     1.1790 hc         1 DJC       0.073700
     25 H4           4.4440     1.9620    -0.0650 hc         1 DJC       0.051200
     26 H5           4.4040     1.1010    -1.5930 hc         1 DJC       0.051200
     27 H6           2.4890     1.8810     1.5080 ha         1 DJC       0.116500
     28 H7           0.0310     1.6470     1.7070 ha         1 DJC       0.121500
     29 H8          -0.0890    -0.3540    -2.1210 ha         1 DJC       0.121500
     30 H9           2.3690    -0.1320    -2.3160 ha         1 DJC       0.116500
     31 H10         -4.3040    -1.7480     0.2840 ha         1 DJC       0.137000
     32 H11         -5.6040     0.3480     0.1990 ha         1 DJC       0.141000
     33 H12         -1.9850     2.6270    -0.2020 ha         1 DJC       0.143000
@<TRIPOS>BOND
     1     1     2 1   
     2     1    21 2   
     3     1    22 1   
     4     2     3 1   
     5     2    23 1   
     6     2    24 1   
     7     3     4 1   
     8     3    25 1   
     9     3    26 1   
    10     4     5 ar  
    11     4     9 ar  
    12     5     6 ar  
    13     5    27 1   
    14     6     7 ar  
    15     6    28 1   
    16     7     8 ar  
    17     7    10 1   
    18     8     9 ar  
    19     8    29 1   
    20     9    30 1   
    21    10    11 ar  
    22    10    15 ar  
    23    11    12 ar  
    24    11    16 1   
    25    12    13 ar  
    26    12    31 1   
    27    13    14 ar  
    28    13    32 1   
    29    14    15 ar  
    30    14    17 1   
    31    15    33 1   
    32    16    18 1   
    33    16    19 1   
    34    16    20 1   
@<TRIPOS>SUBSTRUCTURE
     1 DJC         1 TEMP              0 ****  ****    0 ROOT
