@<TRIPOS>MOLECULE
DJD
   31    32     1     0     0
SMALL
No Charge or Current Charge


@<TRIPOS>ATOM
      1 N           -3.5160    -1.0430     1.3790 n8         1 DJD      -0.881800
      2 CA          -3.9170     0.1000     0.4750 c3         1 DJD       0.029500
      3 C           -5.4710     0.2960     0.1910 c          1 DJD       0.934600
      4 O           -6.1040    -0.6260    -0.3180 o          1 DJD      -0.830800
      5 CB          -3.1160     0.0270    -0.8520 c3         1 DJD      -0.081100
      6 CG          -1.6020     0.0190    -0.6550 ca         1 DJD      -0.006300
      7 CD1         -0.8520    -1.1400    -0.9180 ca         1 DJD      -0.155000
      8 CD2         -0.9390     1.1770    -0.2160 ca         1 DJD      -0.155000
      9 CE1          0.5420    -1.1440    -0.7390 ca         1 DJD      -0.076500
     10 CE2          0.4550     1.1790    -0.0360 ca         1 DJD      -0.076500
     11 CZ           1.2350     0.0160    -0.2930 cp         1 DJD      -0.204500
     12 C02          5.3860     0.0100     0.2430 ca         1 DJD       0.500300
     13 C07          2.7330     0.0140    -0.1000 cp         1 DJD       0.613500
     14 N03          4.7000     1.1550     0.5050 nb         1 DJD      -0.302000
     15 N04          3.3530     1.1510     0.3290 nb         1 DJD      -0.306500
     16 N05          4.7860    -1.1320    -0.1880 nb         1 DJD      -0.302000
     17 N06          3.4380    -1.1240    -0.3600 nb         1 DJD      -0.306500
     18 H           -3.8600    -1.9210     0.9750 hn         1 DJD       0.327300
     19 H2          -2.4950    -1.1340     1.3590 hn         1 DJD       0.327300
     20 HA          -3.5950     1.0180     0.9860 h1         1 DJD       0.047700
     21 HB3         -3.4350    -0.8590    -1.4160 hc         1 DJD       0.060700
     22 HB2         -3.3920     0.8880    -1.4730 hc         1 DJD       0.060700
     23 HD1         -1.3490    -2.0450    -1.2620 ha         1 DJD       0.141000
     24 HD2         -1.5060     2.0840    -0.0130 ha         1 DJD       0.141000
     25 HE1          1.0860    -2.0630    -0.9530 ha         1 DJD       0.140500
     26 HE2          0.9300     2.0970     0.3060 ha         1 DJD       0.140500
     27 H011         7.3920     0.3120    -0.4970 hc         1 DJD       0.059700
     28 H013         7.1910     0.7060     1.2200 hc         1 DJD       0.059700
     29 H012         7.2560    -0.9850     0.7040 hc         1 DJD       0.059700
     30 OXT         -6.0100     1.3390     0.5520 o          1 DJD      -0.830800
     31 C01          6.8900     0.0100     0.4290 c3         1 DJD      -0.126400
@<TRIPOS>BOND
     1     1     2 1   
     2     1    18 1   
     3     1    19 1   
     4     2     3 1   
     5     2     5 1   
     6     2    20 1   
     7     3     4 1   
     8     3    30 1   
     9     5     6 1   
    10     5    21 1   
    11     5    22 1   
    12     6     7 ar  
    13     6     8 ar  
    14     7     9 ar  
    15     7    23 1   
    16     8    10 ar  
    17     8    24 1   
    18     9    11 ar  
    19     9    25 1   
    20    10    11 ar  
    21    10    26 1   
    22    11    13 1   
    23    12    14 ar  
    24    12    16 ar  
    25    12    31 1   
    26    13    15 ar  
    27    13    17 ar  
    28    14    15 ar  
    29    16    17 ar  
    30    27    31 1   
    31    28    31 1   
    32    29    31 1   
@<TRIPOS>SUBSTRUCTURE
     1 DJD         1 TEMP              0 ****  ****    0 ROOT
