@<TRIPOS>MOLECULE
DJD
   31    32     1     0     0
SMALL
bcc


@<TRIPOS>ATOM
      1 N           -3.4580    -1.2050     1.2540 n8         1 DJD      -0.881800
      2 CA          -3.7700     0.0140     0.5370 c3         1 DJD       0.029500
      3 C           -5.2890     0.1220     0.2650 c          1 DJD       0.934600
      4 O           -5.9280    -0.9460     0.1990 o          1 DJD      -0.830800
      5 CB          -3.0480     0.1720    -0.8260 c3         1 DJD      -0.081100
      6 CG          -1.5590     0.1400    -0.6850 ca         1 DJD      -0.006300
      7 CD1         -0.8360    -1.0390    -0.8660 ca         1 DJD      -0.155000
      8 CD2         -0.8580     1.2860    -0.3060 ca         1 DJD      -0.155000
      9 CE1          0.5360    -1.0760    -0.6770 ca         1 DJD      -0.076500
     10 CE2          0.5110     1.2600    -0.1170 ca         1 DJD      -0.076500
     11 CZ           1.2270     0.0740    -0.2980 cp         1 DJD      -0.204500
     12 C02          5.2230    -0.0170     0.2590 ca         1 DJD       0.500300
     13 C07          2.6790     0.0400    -0.0940 cp         1 DJD       0.613500
     14 N03          4.5840     1.1410     0.4190 nb         1 DJD      -0.302000
     15 N04          3.3030     1.1700     0.2400 nb         1 DJD      -0.306500
     16 N05          4.6000    -1.1480    -0.0640 nb         1 DJD      -0.302000
     17 N06          3.3190    -1.1200    -0.2430 nb         1 DJD      -0.306500
     18 H           -3.9040    -1.9830     0.7860 hn         1 DJD       0.327300
     19 H2          -2.4620    -1.3840     1.2500 hn         1 DJD       0.327300
     20 HA          -3.4750     0.8670     1.1580 h1         1 DJD       0.047700
     21 HB3         -3.3780    -0.6280    -1.4950 hc         1 DJD       0.060700
     22 HB2         -3.3560     1.1200    -1.2720 hc         1 DJD       0.060700
     23 HD1         -1.3520    -1.9410    -1.1720 ha         1 DJD       0.141000
     24 HD2         -1.3950     2.2150    -0.1590 ha         1 DJD       0.141000
     25 HE1          1.0680    -2.0050    -0.8280 ha         1 DJD       0.140500
     26 HE2          1.0260     2.1650     0.1740 ha         1 DJD       0.140500
     27 H011         7.1930     0.1670    -0.5150 hc         1 DJD       0.059700
     28 H013         7.0170     0.7150     1.1480 hc         1 DJD       0.059700
     29 H012         7.0310    -1.0220     0.7740 hc         1 DJD       0.059700
     30 OXT         -5.7330     1.2720     0.0840 o          1 DJD      -0.830800
     31 C01          6.6990    -0.0430     0.4360 c3         1 DJD      -0.126400
@<TRIPOS>BOND
     1     1     2 1   
     2     1    18 1   
     3     1    19 1   
     4     2     3 1   
     5     2     5 1   
     6     2    20 1   
     7     3     4 1   
     8     3    30 1   
     9     5     6 1   
    10     5    21 1   
    11     5    22 1   
    12     6     7 ar  
    13     6     8 ar  
    14     7     9 ar  
    15     7    23 1   
    16     8    10 ar  
    17     8    24 1   
    18     9    11 ar  
    19     9    25 1   
    20    10    11 ar  
    21    10    26 1   
    22    11    13 1   
    23    12    14 ar  
    24    12    16 ar  
    25    12    31 1   
    26    13    15 ar  
    27    13    17 ar  
    28    14    15 ar  
    29    16    17 ar  
    30    27    31 1   
    31    28    31 1   
    32    29    31 1   
@<TRIPOS>SUBSTRUCTURE
     1 DJD         1 TEMP              0 ****  ****    0 ROOT
