@<TRIPOS>MOLECULE
DJE
   28    28     1     0     0
SMALL
abcg2


@<TRIPOS>ATOM
      1 C11          4.7550    -0.0090    -0.2340 c3         1 DJE      -0.181100
      2 C10          3.4090    -0.0870     0.4410 c          1 DJE       0.605100
      3 O10          3.3000    -0.3800     1.6210 o          1 DJE      -0.603100
      4 N2           2.3560     0.1910    -0.3540 ns         1 DJE      -0.491900
      5 O1           0.3830     1.5550    -1.6910 oh         1 DJE      -0.703000
      6 C2           0.9850     0.0950     0.0660 c6         1 DJE       0.091700
      7 C3           0.2830    -1.1310    -0.5180 c6         1 DJE       0.152300
      8 O3           0.9920    -2.2690    -0.1170 oh         1 DJE      -0.643000
      9 C4          -1.1720    -1.1370    -0.0480 c6         1 DJE       0.144300
     10 O4          -1.1950    -1.3150     1.3390 oh         1 DJE      -0.742000
     11 C5          -1.8250     0.1750    -0.4840 c6         1 DJE      -0.007700
     12 C6          -3.2820     0.3460    -0.0260 c          1 DJE       0.729000
     13 O6B         -3.9750     1.1490    -0.6820 o          1 DJE      -0.715500
     14 O6A         -3.6810    -0.3360     0.9430 o          1 DJE      -0.715500
     15 O5          -1.1310     1.2900     0.0460 os         1 DJE      -0.436000
     16 C1           0.2260     1.3670    -0.3240 c6         1 DJE       0.368300
     17 H1           5.3550     0.7630     0.2450 hc         1 DJE       0.049033
     18 H2           5.2810    -0.9540    -0.1030 hc         1 DJE       0.049033
     19 H3           4.7040     0.2090    -1.2990 hc         1 DJE       0.049033
     20 H4           2.5260     0.3760    -1.3280 hn         1 DJE       0.308500
     21 H6           0.9770     0.0210     1.1540 h1         1 DJE       0.123700
     22 H7           0.2770    -1.0440    -1.6150 h1         1 DJE       0.025700
     23 H8           0.7290    -3.0030    -0.6800 ho         1 DJE       0.428000
     24 H9          -1.7020    -1.9520    -0.5720 h1         1 DJE       0.020700
     25 H10         -2.1170    -1.1520     1.5950 ho         1 DJE       0.559000
     26 H11         -1.8170     0.2080    -1.5800 h1         1 DJE       0.035700
     27 H13          0.6300     2.2160     0.2410 h2         1 DJE       0.051700
     28 H5           0.1730     2.4640    -1.9260 ho         1 DJE       0.450000
@<TRIPOS>BOND
     1     1     2 1   
     2     1    17 1   
     3     1    18 1   
     4     1    19 1   
     5     2     3 2   
     6     2     4 1   
     7     4     6 1   
     8     4    20 1   
     9     5    16 1   
    10     5    28 1   
    11     6     7 1   
    12     6    16 1   
    13     6    21 1   
    14     7     8 1   
    15     7     9 1   
    16     7    22 1   
    17     8    23 1   
    18     9    10 1   
    19     9    11 1   
    20     9    24 1   
    21    10    25 1   
    22    11    12 1   
    23    11    15 1   
    24    11    26 1   
    25    12    13 1   
    26    12    14 1   
    27    15    16 1   
    28    16    27 1   
@<TRIPOS>SUBSTRUCTURE
     1 DJE         1 TEMP              0 ****  ****    0 ROOT
