@<TRIPOS>MOLECULE
DJE
   28    28     1     0     0
SMALL
No Charge or Current Charge


@<TRIPOS>ATOM
      1 C11          4.8620    -0.0700    -0.3550 c3         1 DJE      -0.181100
      2 C10          3.5370    -0.3610     0.3410 c          1 DJE       0.605100
      3 O10          3.4640    -1.0250     1.3650 o          1 DJE      -0.603100
      4 N2           2.4370     0.2000    -0.2610 ns         1 DJE      -0.491900
      5 O1           0.3490     1.9560    -1.2500 oh         1 DJE      -0.703000
      6 C2           1.0260     0.0260     0.1640 c6         1 DJE       0.091700
      7 C3           0.3150    -1.1060    -0.6570 c6         1 DJE       0.152300
      8 O3           0.9160    -2.3880    -0.4080 oh         1 DJE      -0.643000
      9 C4          -1.2040    -1.1850    -0.3060 c6         1 DJE       0.144300
     10 O4          -1.3680    -1.5950     1.0660 oh         1 DJE      -0.742000
     11 C5          -1.8460     0.2030    -0.5400 c6         1 DJE      -0.007700
     12 C6          -3.3980     0.1320    -0.3420 c          1 DJE       0.729000
     13 O6B         -4.0610     0.2340    -1.3660 o          1 DJE      -0.715500
     14 O6A         -3.8390     0.5790     0.7110 o          1 DJE      -0.715500
     15 O5          -1.1710     1.1810     0.3170 os         1 DJE      -0.436000
     16 C1           0.2330     1.3720     0.0470 c6         1 DJE       0.368300
     17 H1           4.9800     1.0150    -0.4620 hc         1 DJE       0.049033
     18 H2           5.7190    -0.5210     0.1580 hc         1 DJE       0.049033
     19 H3           4.7970    -0.3990    -1.3980 hc         1 DJE       0.049033
     20 H4           2.6080     0.7510    -1.0940 hn         1 DJE       0.308500
     21 H6           1.0140    -0.2590     1.2260 h1         1 DJE       0.123700
     22 H7           0.4070    -0.8630    -1.7260 h1         1 DJE       0.025700
     23 H8           0.4260    -2.7360     0.3700 ho         1 DJE       0.428000
     24 H9          -1.6840    -1.9140    -0.9760 h1         1 DJE       0.020700
     25 H10         -1.6920    -0.7940     1.5490 ho         1 DJE       0.559000
     26 H11         -1.6870     0.4860    -1.5910 h1         1 DJE       0.035700
     27 H13          0.6390     2.0760     0.7910 h2         1 DJE       0.051700
     28 H5          -0.3330     2.6600    -1.2640 ho         1 DJE       0.450000
@<TRIPOS>BOND
     1     1     2 1   
     2     1    17 1   
     3     1    18 1   
     4     1    19 1   
     5     2     3 2   
     6     2     4 1   
     7     4     6 1   
     8     4    20 1   
     9     5    16 1   
    10     5    28 1   
    11     6     7 1   
    12     6    16 1   
    13     6    21 1   
    14     7     8 1   
    15     7     9 1   
    16     7    22 1   
    17     8    23 1   
    18     9    10 1   
    19     9    11 1   
    20     9    24 1   
    21    10    25 1   
    22    11    12 1   
    23    11    15 1   
    24    11    26 1   
    25    12    13 1   
    26    12    14 1   
    27    15    16 1   
    28    16    27 1   
@<TRIPOS>SUBSTRUCTURE
     1 DJE         1 TEMP              0 ****  ****    0 ROOT
