@<TRIPOS>MOLECULE
DJH
   60    64     1     0     0
SMALL
No Charge or Current Charge


@<TRIPOS>ATOM
      1 C4           6.9550     1.7890     0.8980 ca         1 DJH      -0.026200
      2 C7           6.0390     3.7320     0.2920 cc         1 DJH       0.361800
      3 C8           5.9130     2.2990     0.1960 ca         1 DJH      -0.244900
      4 N12          2.8490    -0.4890    -1.2310 n          1 DJH      -0.393800
      5 C13          2.0980     0.2670    -0.1890 c6         1 DJH       0.088000
      6 C15          0.1450    -1.4330    -0.3460 c5         1 DJH      -0.063700
      7 C17          1.9580    -1.2170    -2.1740 c6         1 DJH       0.088000
      8 C21         -0.9160    -0.4790    -1.0240 c          1 DJH       0.574000
      9 C24         -4.1540     0.4870    -0.3790 c          1 DJH       0.581100
     10 C28         -7.2490     1.1590     0.8360 c3         1 DJH       0.274000
     11 C1           5.1430     0.0780    -0.3550 ca         1 DJH      -0.183600
     12 C2           6.2540    -0.4460     0.3640 ca         1 DJH      -0.036000
     13 C3           7.1730     0.4130     1.0080 ca         1 DJH      -0.139000
     14 N5           7.6720     2.8560     1.3950 na         1 DJH      -0.061400
     15 N6           7.1100     4.0880     1.0230 nd         1 DJH      -0.515100
     16 C9           4.9810     1.4850    -0.4590 ca         1 DJH       0.001000
     17 O11          4.6210    -1.9210    -1.5290 o          1 DJH      -0.598100
     18 C14          1.1240    -0.6540     0.5890 c6         1 DJH      -0.084400
     19 C16          0.9890    -2.1710    -1.4330 c6         1 DJH      -0.084400
     20 C18         -0.7520    -2.4290     0.4270 ca         1 DJH      -0.130300
     21 C19         -2.0830    -2.1710     0.1270 ca         1 DJH      -0.024000
     22 N20         -2.1600    -1.0470    -0.7190 n          1 DJH      -0.200400
     23 O22         -0.7500     0.5380    -1.6880 o          1 DJH      -0.530000
     24 C23         -3.4300    -0.5270    -1.2800 c3         1 DJH       0.022000
     25 O25         -3.6970     0.8970     0.6800 o          1 DJH      -0.559100
     26 N26         -5.3730     0.9210    -0.8630 ns         1 DJH      -0.512900
     27 C27         -6.2780     1.8520    -0.1530 c3         1 DJH       0.036000
     28 F29         -6.5800     0.5210     1.8230 f          1 DJH      -0.113333
     29 F30         -8.0690     2.0670     1.4100 f          1 DJH      -0.113333
     30 F31         -8.0200     0.2480     0.1980 f          1 DJH      -0.113333
     31 C32         -3.1440    -2.8620     0.7260 ca         1 DJH      -0.142000
     32 C33         -2.8400    -3.8960     1.6240 ca         1 DJH      -0.070000
     33 C34         -1.4970    -4.1910     1.9300 ca         1 DJH      -0.141000
     34 C35         -0.4320    -3.4630     1.3500 ca         1 DJH      -0.016300
     35 C36          0.9850    -3.8130     1.7960 c3         1 DJH      -0.051800
     36 H1           5.4280     4.5250    -0.1190 h4         1 DJH       0.052800
     37 H2           2.7810     0.7200     0.5410 h1         1 DJH       0.070950
     38 H3           1.5470     1.0900    -0.6650 h1         1 DJH       0.070950
     39 H4           1.3850    -0.4830    -2.7590 h1         1 DJH       0.070950
     40 H5           2.5520    -1.7920    -2.8990 h1         1 DJH       0.070950
     41 H6           6.4000    -1.5230     0.4310 ha         1 DJH       0.126000
     42 H7           8.0190     0.0150     1.5640 ha         1 DJH       0.124000
     43 H8           8.5140     2.8020     1.9670 hn         1 DJH       0.377000
     44 H9           4.1740     1.9270    -1.0400 ha         1 DJH       0.129000
     45 H10          1.7300    -1.3480     1.1790 hc         1 DJH       0.061200
     46 H11          0.5510    -0.0580     1.3140 hc         1 DJH       0.061200
     47 H12          1.5780    -2.9820    -0.9950 hc         1 DJH       0.061200
     48 H13          0.3190    -2.6490    -2.1610 hc         1 DJH       0.061200
     49 H14         -4.1140    -1.3620    -1.4690 h1         1 DJH       0.081700
     50 H15         -3.2360    -0.0380    -2.2420 h1         1 DJH       0.081700
     51 H16         -5.6760     0.5370    -1.7520 hn         1 DJH       0.325500
     52 H17         -6.8700     2.4010    -0.8970 h1         1 DJH       0.094200
     53 H18         -5.6810     2.5910     0.3970 h1         1 DJH       0.094200
     54 H19         -4.1800    -2.6110     0.5110 ha         1 DJH       0.120000
     55 H20         -3.6420    -4.4580     2.0980 ha         1 DJH       0.117000
     56 H21         -1.2840    -4.9830     2.6440 ha         1 DJH       0.115000
     57 H22          1.7240    -3.7200     0.9970 hc         1 DJH       0.047367
     58 H23          1.3010    -3.1690     2.6250 hc         1 DJH       0.047367
     59 H24          1.0440    -4.8480     2.1530 hc         1 DJH       0.047367
     60 C10          4.1990    -0.8750    -1.0520 c          1 DJH       0.611700
@<TRIPOS>BOND
     1     1     3 ar  
     2     1    13 ar  
     3     1    14 1   
     4     2     3 1   
     5     2    15 2   
     6     2    36 1   
     7     3    16 ar  
     8     4     5 1   
     9     4     7 1   
    10     4    60 1   
    11     5    18 1   
    12     5    37 1   
    13     5    38 1   
    14     6     8 1   
    15     6    18 1   
    16     6    19 1   
    17     6    20 1   
    18     7    19 1   
    19     7    39 1   
    20     7    40 1   
    21     8    22 1   
    22     8    23 2   
    23     9    24 1   
    24     9    25 2   
    25     9    26 1   
    26    10    27 1   
    27    10    28 1   
    28    10    29 1   
    29    10    30 1   
    30    11    12 ar  
    31    11    16 ar  
    32    11    60 1   
    33    12    13 ar  
    34    12    41 1   
    35    13    42 1   
    36    14    15 1   
    37    14    43 1   
    38    16    44 1   
    39    17    60 2   
    40    18    45 1   
    41    18    46 1   
    42    19    47 1   
    43    19    48 1   
    44    20    21 ar  
    45    20    34 ar  
    46    21    22 1   
    47    21    31 ar  
    48    22    24 1   
    49    24    49 1   
    50    24    50 1   
    51    26    27 1   
    52    26    51 1   
    53    27    52 1   
    54    27    53 1   
    55    31    32 ar  
    56    31    54 1   
    57    32    33 ar  
    58    32    55 1   
    59    33    34 ar  
    60    33    56 1   
    61    34    35 1   
    62    35    57 1   
    63    35    58 1   
    64    35    59 1   
@<TRIPOS>SUBSTRUCTURE
     1 DJH         1 TEMP              0 ****  ****    0 ROOT
