@<TRIPOS>MOLECULE
DJH
   60    64     1     0     0
SMALL
bcc


@<TRIPOS>ATOM
      1 C4           6.4760     1.6110     1.3250 ca         1 DJH      -0.026200
      2 C7           6.2890     3.5310     0.2060 cc         1 DJH       0.361800
      3 C8           5.8450     2.1810     0.2050 ca         1 DJH      -0.244900
      4 N12          2.7750    -0.4380    -1.4930 n          1 DJH      -0.460800
      5 C13          1.9440     0.4620    -0.7050 c6         1 DJH       0.088000
      6 C15          0.1450    -1.3680    -0.6270 c5         1 DJH      -0.063700
      7 C17          1.9920    -1.2770    -2.3870 c6         1 DJH       0.088000
      8 C21         -0.9550    -0.6440    -1.4100 c          1 DJH       0.716500
      9 C24         -3.9560     0.3880    -0.4350 c          1 DJH       0.648100
     10 C28         -6.7280     0.9300     1.3130 c3         1 DJH       0.637900
     11 C1           4.8160     0.0770    -0.2550 ca         1 DJH      -0.183600
     12 C2           5.4820    -0.4820     0.8610 ca         1 DJH      -0.054000
     13 C3           6.3000     0.2660     1.6720 ca         1 DJH      -0.157000
     14 N5           7.2050     2.6020     1.8820 na         1 DJH      -0.011100
     15 N6           7.0940     3.7530     1.2130 nd         1 DJH      -0.515100
     16 C9           4.9970     1.4030    -0.5900 ca         1 DJH      -0.017000
     17 O11          4.5150    -1.8890    -1.5070 o          1 DJH      -0.598100
     18 C14          0.9740    -0.3360     0.1600 c6         1 DJH      -0.084400
     19 C16          1.0380    -2.1640    -1.5980 c6         1 DJH      -0.084400
     20 C18         -0.6600    -2.2680     0.2840 ca         1 DJH      -0.130300
     21 C19         -2.0130    -2.0710     0.0120 ca         1 DJH       0.068600
     22 N20         -2.1590    -1.1430    -1.0160 n          1 DJH      -0.360000
     23 O22         -0.8150     0.2240    -2.2460 o          1 DJH      -0.605500
     24 C23         -3.4150    -0.6180    -1.4450 c3         1 DJH       0.022000
     25 O25         -3.2490     0.8780     0.4220 o          1 DJH      -0.559100
     26 N26         -5.2570     0.6890    -0.6110 ns         1 DJH      -0.579900
     27 C27         -5.9640     1.6300     0.2100 c3         1 DJH       0.036000
     28 F29         -5.9260     0.2120     2.1090 f          1 DJH      -0.234633
     29 F30         -7.3760     1.8110     2.0840 f          1 DJH      -0.234633
     30 F31         -7.6430     0.0800     0.8240 f          1 DJH      -0.234633
     31 C32         -3.0230    -2.7290     0.6860 ca         1 DJH      -0.160000
     32 C33         -2.6380    -3.6300     1.6720 ca         1 DJH      -0.088000
     33 C34         -1.2980    -3.8480     1.9520 ca         1 DJH      -0.159000
     34 C35         -0.2780    -3.1750     1.2680 ca         1 DJH      -0.016300
     35 C36          1.1510    -3.4680     1.6320 c3         1 DJH      -0.051800
     36 H1           6.0420     4.3200    -0.4870 h4         1 DJH       0.052800
     37 H2           2.5590     1.0810    -0.0580 h1         1 DJH       0.070950
     38 H3           1.4170     1.1330    -1.3830 h1         1 DJH       0.070950
     39 H4           1.4490    -0.6230    -3.0700 h1         1 DJH       0.070950
     40 H5           2.6580    -1.8920    -2.9870 h1         1 DJH       0.070950
     41 H6           5.3320    -1.5300     1.0890 ha         1 DJH       0.144000
     42 H7           6.7880    -0.1700     2.5320 ha         1 DJH       0.142000
     43 H8           7.7860     2.5570     2.7030 hn         1 DJH       0.326700
     44 H9           4.5050     1.8330    -1.4540 ha         1 DJH       0.147000
     45 H10          1.5560    -0.8590     0.9210 hc         1 DJH       0.061200
     46 H11          0.3100     0.3470     0.6950 hc         1 DJH       0.061200
     47 H12          1.6310    -2.8810    -1.0270 hc         1 DJH       0.061200
     48 H13          0.4190    -2.7500    -2.2820 hc         1 DJH       0.061200
     49 H14         -4.1280    -1.4280    -1.6120 h1         1 DJH       0.081700
     50 H15         -3.2820    -0.1170    -2.4050 h1         1 DJH       0.081700
     51 H16         -5.7660     0.2410    -1.3570 hn         1 DJH       0.325500
     52 H17         -6.6680     2.1960    -0.4000 h1         1 DJH       0.094200
     53 H18         -5.2660     2.3380     0.6550 h1         1 DJH       0.094200
     54 H19         -4.0690    -2.5590     0.4680 ha         1 DJH       0.138000
     55 H20         -3.3940    -4.1680     2.2280 ha         1 DJH       0.135000
     56 H21         -1.0290    -4.5570     2.7250 ha         1 DJH       0.133000
     57 H22          1.7250    -3.8400     0.7830 hc         1 DJH       0.047367
     58 H23          1.6710    -2.5890     2.0120 hc         1 DJH       0.047367
     59 H24          1.1970    -4.2290     2.4090 hc         1 DJH       0.047367
     60 C10          4.0150    -0.8390    -1.1230 c          1 DJH       0.678700
@<TRIPOS>BOND
     1     1     3 ar  
     2     1    13 ar  
     3     1    14 1   
     4     2     3 1   
     5     2    15 2   
     6     2    36 1   
     7     3    16 ar  
     8     4     5 1   
     9     4     7 1   
    10     4    60 1   
    11     5    18 1   
    12     5    37 1   
    13     5    38 1   
    14     6     8 1   
    15     6    18 1   
    16     6    19 1   
    17     6    20 1   
    18     7    19 1   
    19     7    39 1   
    20     7    40 1   
    21     8    22 1   
    22     8    23 2   
    23     9    24 1   
    24     9    25 2   
    25     9    26 1   
    26    10    27 1   
    27    10    28 1   
    28    10    29 1   
    29    10    30 1   
    30    11    12 ar  
    31    11    16 ar  
    32    11    60 1   
    33    12    13 ar  
    34    12    41 1   
    35    13    42 1   
    36    14    15 1   
    37    14    43 1   
    38    16    44 1   
    39    17    60 2   
    40    18    45 1   
    41    18    46 1   
    42    19    47 1   
    43    19    48 1   
    44    20    21 ar  
    45    20    34 ar  
    46    21    22 1   
    47    21    31 ar  
    48    22    24 1   
    49    24    49 1   
    50    24    50 1   
    51    26    27 1   
    52    26    51 1   
    53    27    52 1   
    54    27    53 1   
    55    31    32 ar  
    56    31    54 1   
    57    32    33 ar  
    58    32    55 1   
    59    33    34 ar  
    60    33    56 1   
    61    34    35 1   
    62    35    57 1   
    63    35    58 1   
    64    35    59 1   
@<TRIPOS>SUBSTRUCTURE
     1 DJH         1 TEMP              0 ****  ****    0 ROOT
