@<TRIPOS>MOLECULE
DJJ
   42    43     1     0     0
SMALL
abcg2


@<TRIPOS>ATOM
      1 C4          -6.0910    -2.7910     0.2760 cc         1 DJJ       0.743500
      2 N4          -6.6020    -3.8910     0.8240 nv         1 DJJ      -1.064200
      3 C5          -6.0470    -2.6630    -1.1450 cc         1 DJJ      -0.510600
      4 C6          -5.5190    -1.5190    -1.6210 cd         1 DJJ      -0.032400
      5 N3          -5.6320    -1.8490     1.0760 nd         1 DJJ      -0.799100
      6 C2          -5.1010    -0.7170     0.5910 c          1 DJJ       0.720400
      7 O2          -4.6470     0.1590     1.3140 o          1 DJJ      -0.544000
      8 N1          -5.0600    -0.5440    -0.8010 n          1 DJJ      -0.309000
      9 C1          -4.5010     0.6660    -1.3920 c5         1 DJJ       0.343700
     10 C9          -5.1290     1.9830    -0.9270 c5         1 DJJ      -0.148400
     11 C3          -4.0170     2.7050    -0.1700 c5         1 DJJ       0.119300
     12 O3          -3.9380     4.0890    -0.4140 oh         1 DJJ      -0.706000
     13 O4          -3.1290     0.7340    -1.1160 os         1 DJJ      -0.390000
     14 C7          -2.7520     2.0390    -0.7110 c5         1 DJJ       0.167300
     15 C8          -1.6520     1.9660     0.3210 c3         1 DJJ       0.237600
     16 O5          -0.5030     1.3700    -0.2380 os         1 DJJ      -0.554400
     17 PA           0.9350     1.7110     0.5130 p5         1 DJJ       1.449800
     18 O1A          0.7550     1.4600     1.9810 o          1 DJJ      -0.868500
     19 O2A          1.4230     3.0480     0.0400 o          1 DJJ      -0.868500
     20 O3A          1.7350     0.5040    -0.2330 os         1 DJJ      -0.698800
     21 PB           3.4160     0.4120    -0.2150 p5         1 DJJ       1.497400
     22 O2B          3.8980     1.1550     0.9970 o          1 DJJ      -0.845000
     23 O1B          3.8880     0.8040    -1.5840 o          1 DJJ      -0.845000
     24 C3B          3.5740    -1.3850     0.0630 c3         1 DJJ      -0.372700
     25 CL1          2.9790    -2.2470    -1.4330 cl         1 DJJ      -0.397000
     26 PG           5.3060    -1.9690     0.5300 p5         1 DJJ       1.303500
     27 O1G          5.4290    -1.5600     1.9960 o          1 DJJ      -0.906500
     28 O2G          5.2660    -3.4850     0.3170 o          1 DJJ      -0.906500
     29 O3G          6.2440    -1.2230    -0.4160 o          1 DJJ      -0.906500
     30 H1          -6.9740    -4.6360     0.2610 hn         1 DJJ       0.475000
     31 H2          -6.6320    -3.9920     1.8240 hn         1 DJJ       0.475000
     32 H3          -6.4050    -3.4350    -1.8090 ha         1 DJJ       0.165000
     33 H4          -5.4360    -1.3340    -2.6830 h4         1 DJJ       0.177000
     34 H5          -4.6570     0.5440    -2.4660 h2         1 DJJ       0.023700
     35 H6          -5.4070     2.5700    -1.8050 hc         1 DJJ       0.033700
     36 H7          -6.0310     1.8380    -0.3340 hc         1 DJJ       0.033700
     37 H8          -4.1130     2.5070     0.9020 h1         1 DJJ       0.076700
     38 H9          -4.6230     4.5250     0.1000 ho         1 DJJ       0.470000
     39 H10         -2.4010     2.6170    -1.5810 h1         1 DJJ       0.060700
     40 H11         -1.4600     2.9920     0.6590 h1         1 DJJ       0.020700
     41 H12         -2.0050     1.3990     1.1910 h1         1 DJJ       0.020700
     42 H15          2.8830    -1.6900     0.8520 h1         1 DJJ       0.057700
@<TRIPOS>BOND
     1     1     2 1   
     2     1     3 1   
     3     1     5 2   
     4     2    30 1   
     5     2    31 1   
     6     3     4 2   
     7     3    32 1   
     8     4     8 1   
     9     4    33 1   
    10     5     6 1   
    11     6     7 2   
    12     6     8 1   
    13     8     9 1   
    14     9    10 1   
    15     9    13 1   
    16     9    34 1   
    17    10    11 1   
    18    10    35 1   
    19    10    36 1   
    20    11    12 1   
    21    11    14 1   
    22    11    37 1   
    23    12    38 1   
    24    13    14 1   
    25    14    15 1   
    26    14    39 1   
    27    15    16 1   
    28    15    40 1   
    29    15    41 1   
    30    16    17 1   
    31    17    18 1   
    32    17    19 1   
    33    17    20 1   
    34    20    21 1   
    35    21    22 1   
    36    21    23 1   
    37    21    24 1   
    38    24    25 1   
    39    24    26 1   
    40    24    42 1   
    41    26    27 1   
    42    26    28 1   
    43    26    29 1   
@<TRIPOS>SUBSTRUCTURE
     1 DJJ         1 TEMP              0 ****  ****    0 ROOT
