@<TRIPOS>MOLECULE
DJJ
   42    43     1     0     0
SMALL
No Charge or Current Charge


@<TRIPOS>ATOM
      1 C4          -6.0160    -3.0730    -0.4860 cc         1 DJJ       0.743500
      2 N4          -6.5410    -4.2680    -0.3230 nv         1 DJJ      -1.064200
      3 C5          -6.5930    -2.2020    -1.4250 cc         1 DJJ      -0.510600
      4 C6          -6.0370    -0.9550    -1.5780 cd         1 DJJ      -0.032400
      5 N3          -5.0090    -2.7960     0.2620 nd         1 DJJ      -0.799100
      6 C2          -4.4090    -1.5370     0.1460 c          1 DJJ       0.720400
      7 O2          -3.4750    -1.2910     0.8920 o          1 DJJ      -0.544000
      8 N1          -4.9350    -0.6150    -0.7970 n          1 DJJ      -0.309000
      9 C1          -4.2990     0.7100    -1.0090 c5         1 DJJ       0.343700
     10 C9          -4.7700     1.6700     0.1310 c5         1 DJJ      -0.148400
     11 C3          -3.4270     2.0670     0.8080 c5         1 DJJ       0.119300
     12 O3          -3.4830     3.3860     1.3620 oh         1 DJJ      -0.706000
     13 O4          -2.8630     0.6800    -0.9700 os         1 DJJ      -0.390000
     14 C7          -2.4510     1.9370    -0.3990 c5         1 DJJ       0.167300
     15 C8          -0.9480     1.9170    -0.0180 c3         1 DJJ       0.237600
     16 O5          -0.1680     2.0170    -1.2180 os         1 DJJ      -0.554400
     17 PA           1.4300     2.1710    -1.0990 p5         1 DJJ       1.449800
     18 O1A          1.7710     3.1820    -0.0540 o          1 DJJ      -0.868500
     19 O2A          1.9680     2.5460    -2.4400 o          1 DJJ      -0.868500
     20 O3A          1.7220     0.6800    -0.6780 os         1 DJJ      -0.698800
     21 PB           3.2390     0.2660    -0.8510 p5         1 DJJ       1.497400
     22 O2B          4.2420     1.2360    -0.3100 o          1 DJJ      -0.845000
     23 O1B          3.5160    -0.0710    -2.2860 o          1 DJJ      -0.845000
     24 C3B          3.1980    -1.3380     0.0290 c3         1 DJJ      -0.372700
     25 Cl1          4.3090    -2.7140    -0.5820 cl         1 DJJ      -0.397000
     26 PG           3.3530    -0.8740     1.7790 p5         1 DJJ       1.303500
     27 O1G          2.4690     0.2540     2.1830 o          1 DJJ      -0.906500
     28 O2G          2.9570    -2.0890     2.5540 o          1 DJJ      -0.906500
     29 O3G          4.7810    -0.5870     2.1080 o          1 DJJ      -0.906500
     30 H1          -7.5140    -4.3510    -0.5850 hn         1 DJJ       0.475000
     31 H2          -6.2690    -4.7220     0.5380 hn         1 DJJ       0.475000
     32 H3          -7.4470    -2.5220    -2.0100 ha         1 DJJ       0.165000
     33 H4          -6.3790    -0.1870    -2.2690 h4         1 DJJ       0.177000
     34 H5          -4.6320     1.0830    -1.9850 h2         1 DJJ       0.023700
     35 H6          -5.2840     2.5380    -0.2990 hc         1 DJJ       0.033700
     36 H7          -5.4650     1.2040     0.8400 hc         1 DJJ       0.033700
     37 H8          -3.1550     1.3330     1.5810 h1         1 DJJ       0.076700
     38 H9          -4.1980     3.3840     2.0390 ho         1 DJJ       0.470000
     39 H10         -2.6250     2.7400    -1.1300 h1         1 DJJ       0.060700
     40 H11         -0.7460     2.7670     0.6460 h1         1 DJJ       0.020700
     41 H12         -0.7220     0.9910     0.5270 h1         1 DJJ       0.020700
     42 H15          2.1720    -1.7000    -0.0880 h1         1 DJJ       0.057700
@<TRIPOS>BOND
     1     1     2 1   
     2     1     3 1   
     3     1     5 2   
     4     2    30 1   
     5     2    31 1   
     6     3     4 2   
     7     3    32 1   
     8     4     8 1   
     9     4    33 1   
    10     5     6 1   
    11     6     7 2   
    12     6     8 1   
    13     8     9 1   
    14     9    10 1   
    15     9    13 1   
    16     9    34 1   
    17    10    11 1   
    18    10    35 1   
    19    10    36 1   
    20    11    12 1   
    21    11    14 1   
    22    11    37 1   
    23    12    38 1   
    24    13    14 1   
    25    14    15 1   
    26    14    39 1   
    27    15    16 1   
    28    15    40 1   
    29    15    41 1   
    30    16    17 1   
    31    17    18 1   
    32    17    19 1   
    33    17    20 1   
    34    20    21 1   
    35    21    22 1   
    36    21    23 1   
    37    21    24 1   
    38    24    25 1   
    39    24    26 1   
    40    24    42 1   
    41    26    27 1   
    42    26    28 1   
    43    26    29 1   
@<TRIPOS>SUBSTRUCTURE
     1 DJJ         1 TEMP              0 ****  ****    0 ROOT
