@<TRIPOS>MOLECULE
DJK
   36    38     1     0     0
SMALL
No Charge or Current Charge


@<TRIPOS>ATOM
      1 C51          0.7930    -4.2420    -3.1340 c2         1 DJK      -0.269000
      2 C11         -0.4040    -3.6470    -3.3810 ce         1 DJK      -0.277200
      3 C10         -0.8520    -2.3010    -2.9020 c          1 DJK       0.605300
      4 O61         -1.9600    -1.8710    -3.1930 o          1 DJK      -0.567100
      5 N11          0.0740    -1.6150    -2.1260 ns         1 DJK      -0.149000
      6 C9           0.0430    -0.3410    -1.4940 ca         1 DJK      -0.019000
      7 C8           1.1760     0.0420    -0.7530 ca         1 DJK      -0.150000
      8 C13         -1.0500     0.5470    -1.5770 ca         1 DJK      -0.093000
      9 C17         -1.0040     1.7930    -0.9280 ca         1 DJK      -0.072000
     10 C18          0.1250     2.1800    -0.1860 ca         1 DJK       0.027000
     11 C7           1.2270     1.2950    -0.0950 ca         1 DJK      -0.140000
     12 C6           2.3480     1.7240     0.6620 ca         1 DJK       0.400900
     13 N3           2.3590     2.9180     1.2800 nb         1 DJK      -0.270000
     14 C19          1.2650     3.6880     1.1300 ca         1 DJK       0.161900
     15 N2           0.1550     3.3800     0.4310 nb         1 DJK      -0.189000
     16 N1           3.4670     0.9070     0.8490 nu         1 DJK      -0.930900
     17 C5           4.7570     1.1120     1.3510 ca         1 DJK       0.309000
     18 C4           5.3930     2.3680     1.3160 ca         1 DJK      -0.104000
     19 C20          5.4530     0.0060     1.8700 ca         1 DJK      -0.164000
     20 C21          6.7580     0.1530     2.3740 ca         1 DJK      -0.081000
     21 C22          7.3800     1.4120     2.3520 ca         1 DJK      -0.112000
     22 C3           6.6970     2.5160     1.8190 ca         1 DJK       0.008100
     23 Br           7.5480     4.2290     1.7680 br         1 DJK      -0.095100
     24 H511         1.0230    -5.2330    -3.5320 ha         1 DJK       0.171000
     25 H512         1.5800    -3.7810    -2.5360 ha         1 DJK       0.171000
     26 H111        -1.1500    -4.1620    -3.9870 ha         1 DJK       0.207000
     27 HN11         0.9380    -2.1190    -1.9810 hn         1 DJK       0.151000
     28 H8           2.0180    -0.6440    -0.7010 ha         1 DJK       0.101000
     29 H13         -1.9440     0.2960    -2.1380 ha         1 DJK       0.151000
     30 H17         -1.8550     2.4660    -1.0040 ha         1 DJK       0.141000
     31 H19          1.2770     4.6560     1.6270 h5         1 DJK       0.050100
     32 HN1          3.2690    -0.0680     0.6410 hn         1 DJK       0.496000
     33 H4           4.8910     3.2270     0.8860 ha         1 DJK       0.171000
     34 H20          4.9810    -0.9720     1.8920 ha         1 DJK       0.109000
     35 H21          7.2860    -0.7080     2.7800 ha         1 DJK       0.117000
     36 H22          8.3900     1.5280     2.7400 ha         1 DJK       0.133000
@<TRIPOS>BOND
     1     1     2 2   
     2     1    24 1   
     3     1    25 1   
     4     2     3 1   
     5     2    26 1   
     6     3     4 2   
     7     3     5 1   
     8     5     6 1   
     9     5    27 1   
    10     6     7 ar  
    11     6     8 ar  
    12     7    11 ar  
    13     7    28 1   
    14     8     9 ar  
    15     8    29 1   
    16     9    10 ar  
    17     9    30 1   
    18    10    11 ar  
    19    10    15 ar  
    20    11    12 ar  
    21    12    13 ar  
    22    12    16 1   
    23    13    14 ar  
    24    14    15 ar  
    25    14    31 1   
    26    16    17 1   
    27    16    32 1   
    28    17    18 ar  
    29    17    19 ar  
    30    18    22 ar  
    31    18    33 1   
    32    19    20 ar  
    33    19    34 1   
    34    20    21 ar  
    35    20    35 1   
    36    21    22 ar  
    37    21    36 1   
    38    22    23 1   
@<TRIPOS>SUBSTRUCTURE
     1 DJK         1 TEMP              0 ****  ****    0 ROOT
