@<TRIPOS>MOLECULE
DJK
   36    38     1     0     0
SMALL
bcc


@<TRIPOS>ATOM
      1 C51          0.4870    -4.1290    -3.5530 c2         1 DJK      -0.169000
      2 C11         -0.6290    -3.8130    -2.9050 ce         1 DJK      -0.227200
      3 C10         -0.9520    -2.4700    -2.3610 c          1 DJK       0.672300
      4 O61         -2.1080    -2.0900    -2.2860 o          1 DJK      -0.567100
      5 N11          0.1200    -1.7310    -1.9650 ns         1 DJK      -0.475100
      6 C9           0.1400    -0.4300    -1.4610 ca         1 DJK       0.073600
      7 C8           1.2620    -0.0310    -0.7660 ca         1 DJK      -0.168000
      8 C13         -0.9080     0.4940    -1.6690 ca         1 DJK      -0.111000
      9 C17         -0.8080     1.7670    -1.1760 ca         1 DJK      -0.155300
     10 C18          0.3280     2.1920    -0.4620 ca         1 DJK       0.420600
     11 C7           1.3770     1.2740    -0.2640 ca         1 DJK      -0.270600
     12 C6           2.5110     1.7840     0.4660 ca         1 DJK       0.729200
     13 N3           2.5260     3.0220     0.9010 nb         1 DJK      -0.796000
     14 C19          1.4580     3.7960     0.6480 ca         1 DJK       0.687900
     15 N2           0.3780     3.4680     0.0060 nb         1 DJK      -0.715000
     16 N1           3.5660     0.9690     0.6990 nu         1 DJK      -0.737300
     17 C5           4.7710     1.1910     1.3620 ca         1 DJK       0.170600
     18 C4           5.1630     2.4110     1.9160 ca         1 DJK      -0.122000
     19 C20          5.6310     0.0910     1.4570 ca         1 DJK      -0.182000
     20 C21          6.8520     0.2060     2.0910 ca         1 DJK      -0.099000
     21 C22          7.2580     1.4130     2.6490 ca         1 DJK      -0.130000
     22 C3           6.3970     2.4910     2.5460 ca         1 DJK       0.008100
     23 BR           6.9140     4.1510     3.2900 br         1 DJK      -0.095100
     24 H511         0.6230    -5.1190    -3.9670 ha         1 DJK       0.121000
     25 H512         1.2950    -3.4270    -3.7200 ha         1 DJK       0.121000
     26 H111        -1.4290    -4.5380    -2.8090 ha         1 DJK       0.157000
     27 HN11         1.0040    -2.2170    -1.9260 hn         1 DJK       0.317500
     28 H8           2.0520    -0.7590    -0.6230 ha         1 DJK       0.119000
     29 H13         -1.7890     0.2100    -2.2220 ha         1 DJK       0.169000
     30 H17         -1.6090     2.4770    -1.3370 ha         1 DJK       0.159000
     31 H19          1.5200     4.8090     1.0310 h5         1 DJK       0.050100
     32 HN1          3.4810     0.0300     0.3460 hn         1 DJK       0.440800
     33 H4           4.5140     3.2680     1.8530 ha         1 DJK       0.189000
     34 H20          5.3370    -0.8610     1.0320 ha         1 DJK       0.127000
     35 H21          7.5020    -0.6560     2.1560 ha         1 DJK       0.135000
     36 H22          8.2150     1.4950     3.1450 ha         1 DJK       0.151000
@<TRIPOS>BOND
     1     1     2 2   
     2     1    24 1   
     3     1    25 1   
     4     2     3 1   
     5     2    26 1   
     6     3     4 2   
     7     3     5 1   
     8     5     6 1   
     9     5    27 1   
    10     6     7 ar  
    11     6     8 ar  
    12     7    11 ar  
    13     7    28 1   
    14     8     9 ar  
    15     8    29 1   
    16     9    10 ar  
    17     9    30 1   
    18    10    11 ar  
    19    10    15 ar  
    20    11    12 ar  
    21    12    13 ar  
    22    12    16 1   
    23    13    14 ar  
    24    14    15 ar  
    25    14    31 1   
    26    16    17 1   
    27    16    32 1   
    28    17    18 ar  
    29    17    19 ar  
    30    18    22 ar  
    31    18    33 1   
    32    19    20 ar  
    33    19    34 1   
    34    20    21 ar  
    35    20    35 1   
    36    21    22 ar  
    37    21    36 1   
    38    22    23 1   
@<TRIPOS>SUBSTRUCTURE
     1 DJK         1 TEMP              0 ****  ****    0 ROOT
