@<TRIPOS>MOLECULE
DJL
   35    36     1     0     0
SMALL
No Charge or Current Charge


@<TRIPOS>ATOM
      1 C1          -2.9380    -2.1070    -1.3170 ca         1 DJL      -0.072000
      2 C2          -3.9530    -2.5570    -0.4550 ca         1 DJL      -0.118000
      3 C3          -4.1860    -1.8970     0.7640 ca         1 DJL      -0.072000
      4 C4          -3.4000    -0.7880     1.1230 ca         1 DJL      -0.148500
      5 C5          -2.3770    -0.3410     0.2700 ca         1 DJL       0.107100
      6 C6          -2.1510    -0.9980    -0.9580 ca         1 DJL      -0.148500
      7 O7          -1.6320     0.7530     0.6510 os         1 DJL      -0.229200
      8 C8          -0.3570     0.9870     0.1750 ca         1 DJL       0.088100
      9 C9          -0.0870     2.1710    -0.5370 ca         1 DJL       0.156000
     10 C10          1.2060     2.4190    -1.0260 ca         1 DJL      -0.100000
     11 C11          2.2390     1.4930    -0.8030 ca         1 DJL      -0.070000
     12 C12          1.9870     0.3050    -0.0800 ca         1 DJL      -0.231300
     13 C13          0.6850     0.0630     0.4080 ca         1 DJL       0.201000
     14 Cl1         -1.3640     3.3480    -0.8390 cl         1 DJL      -0.099000
     15 N20          4.0880    -0.0350     1.0400 nz         1 DJL      -0.977000
     16 C23          3.7250    -1.2360    -1.1250 c3         1 DJL      -0.106400
     17 F23          0.4390    -1.0660     1.1140 f          1 DJL      -0.147000
     18 C30          3.0870    -0.7090     0.1760 c3         1 DJL       0.190600
     19 H30          2.6790    -1.5690     0.7220 hx         1 DJL       0.115700
     20 HN20         4.8380    -0.6640     1.3580 hn         1 DJL       0.507667
     21 HN2A         4.5530     0.7570     0.5760 hn         1 DJL       0.507667
     22 HN2B         3.6660     0.3520     1.8970 hn         1 DJL       0.507667
     23 H22          5.6470    -1.9550    -0.3500 hc         1 DJL       0.056033
     24 H22A         4.3520    -3.1770    -0.3330 hc         1 DJL       0.056033
     25 H22B         5.1370    -2.7290    -1.8610 hc         1 DJL       0.056033
     26 H23          4.1830    -0.4120    -1.6840 hc         1 DJL       0.087700
     27 H23A         2.9270    -1.6380    -1.7620 hc         1 DJL       0.087700
     28 H11          3.2320     1.7060    -1.1920 ha         1 DJL       0.122000
     29 H10          1.4060     3.3330    -1.5800 ha         1 DJL       0.160000
     30 H4          -3.5800    -0.2760     2.0650 ha         1 DJL       0.123500
     31 H3          -4.9750    -2.2440     1.4290 ha         1 DJL       0.125500
     32 H2          -4.5620    -3.4140    -0.7340 ha         1 DJL       0.130000
     33 H1          -2.7630    -2.6150    -2.2630 ha         1 DJL       0.125500
     34 H6          -1.3760    -0.6540    -1.6380 ha         1 DJL       0.123500
     35 C22          4.7800    -2.3410    -0.8990 c3         1 DJL      -0.115100
@<TRIPOS>BOND
     1     1     2 ar  
     2     1     6 ar  
     3     1    33 1   
     4     2     3 ar  
     5     2    32 1   
     6     3     4 ar  
     7     3    31 1   
     8     4     5 ar  
     9     4    30 1   
    10     5     6 ar  
    11     5     7 1   
    12     6    34 1   
    13     7     8 1   
    14     8     9 ar  
    15     8    13 ar  
    16     9    10 ar  
    17     9    14 1   
    18    10    11 ar  
    19    10    29 1   
    20    11    12 ar  
    21    11    28 1   
    22    12    13 ar  
    23    12    18 1   
    24    13    17 1   
    25    15    18 1   
    26    15    20 1   
    27    15    21 1   
    28    15    22 1   
    29    16    18 1   
    30    16    26 1   
    31    16    27 1   
    32    16    35 1   
    33    18    19 1   
    34    23    35 1   
    35    24    35 1   
    36    25    35 1   
@<TRIPOS>SUBSTRUCTURE
     1 DJL         1 TEMP              0 ****  ****    0 ROOT
