@<TRIPOS>MOLECULE
DJL
   35    36     1     0     0
SMALL
abcg2


@<TRIPOS>ATOM
      1 C1          -3.1920    -1.8820    -1.3420 ca         1 DJL      -0.072000
      2 C2          -4.3150    -2.1730    -0.5830 ca         1 DJL      -0.118000
      3 C3          -4.4560    -1.5930     0.6720 ca         1 DJL      -0.072000
      4 C4          -3.4870    -0.7340     1.1650 ca         1 DJL      -0.148500
      5 C5          -2.3680    -0.4530     0.3920 ca         1 DJL       0.107100
      6 C6          -2.2110    -1.0200    -0.8640 ca         1 DJL      -0.148500
      7 O7          -1.4610     0.4140     0.9480 os         1 DJL      -0.229200
      8 C8          -0.3100     0.6790     0.2880 ca         1 DJL       0.088100
      9 C9          -0.1960     1.7730    -0.5580 ca         1 DJL       0.156000
     10 C10          1.0140     2.0710    -1.1670 ca         1 DJL      -0.100000
     11 C11          2.1080     1.2570    -0.9370 ca         1 DJL      -0.070000
     12 C12          2.0280     0.1440    -0.1030 ca         1 DJL      -0.231300
     13 C13          0.8070    -0.1190     0.4930 ca         1 DJL       0.201000
     14 CL1         -1.5790     2.7550    -0.8280 cl         1 DJL      -0.099000
     15 N20          4.1630     0.0090     1.0650 nz         1 DJL      -0.977000
     16 C23          3.9500    -1.1660    -1.1110 c3         1 DJL      -0.106400
     17 F23          0.6670    -1.1710     1.3000 f          1 DJL      -0.147000
     18 C30          3.2260    -0.7320     0.1570 c3         1 DJL       0.190600
     19 H30          2.9360    -1.6180     0.7200 hx         1 DJL       0.115700
     20 HN20         4.9850    -0.5500     1.2990 hn         1 DJL       0.507667
     21 HN2A         4.5020     0.8790     0.6520 hn         1 DJL       0.507667
     22 HN2B         3.7180     0.2520     1.9500 hn         1 DJL       0.507667
     23 H22          5.9570    -1.6110    -0.3560 hc         1 DJL       0.056033
     24 H22A         4.8230    -2.9630    -0.2560 hc         1 DJL       0.056033
     25 H22B         5.5060    -2.4790    -1.8050 hc         1 DJL       0.056033
     26 H23          4.2840    -0.2930    -1.6770 hc         1 DJL       0.087700
     27 H23A         3.2060    -1.6690    -1.7310 hc         1 DJL       0.087700
     28 H11          3.0430     1.5040    -1.4230 ha         1 DJL       0.122000
     29 H10          1.0980     2.9270    -1.8210 ha         1 DJL       0.160000
     30 H4          -3.5960    -0.2830     2.1430 ha         1 DJL       0.123500
     31 H3          -5.3260    -1.8120     1.2780 ha         1 DJL       0.125500
     32 H2          -5.0730    -2.8440    -0.9640 ha         1 DJL       0.130000
     33 H1          -3.0680    -2.3240    -2.3220 ha         1 DJL       0.125500
     34 H6          -1.3470    -0.8060    -1.4810 ha         1 DJL       0.123500
     35 C22          5.1220    -2.1040    -0.8580 c3         1 DJL      -0.115100
@<TRIPOS>BOND
     1     1     2 ar  
     2     1     6 ar  
     3     1    33 1   
     4     2     3 ar  
     5     2    32 1   
     6     3     4 ar  
     7     3    31 1   
     8     4     5 ar  
     9     4    30 1   
    10     5     6 ar  
    11     5     7 1   
    12     6    34 1   
    13     7     8 1   
    14     8     9 ar  
    15     8    13 ar  
    16     9    10 ar  
    17     9    14 1   
    18    10    11 ar  
    19    10    29 1   
    20    11    12 ar  
    21    11    28 1   
    22    12    13 ar  
    23    12    18 1   
    24    13    17 1   
    25    15    18 1   
    26    15    20 1   
    27    15    21 1   
    28    15    22 1   
    29    16    18 1   
    30    16    26 1   
    31    16    27 1   
    32    16    35 1   
    33    18    19 1   
    34    23    35 1   
    35    24    35 1   
    36    25    35 1   
@<TRIPOS>SUBSTRUCTURE
     1 DJL         1 TEMP              0 ****  ****    0 ROOT
