@<TRIPOS>MOLECULE
DJM
   34    35     1     0     0
SMALL
No Charge or Current Charge


@<TRIPOS>ATOM
      1 C01        128.9960   222.9690   229.0810 c3         1 DJM      -0.048300
      2 C02       -127.5170   222.6260   228.9810 ca         1 DJM      -0.068800
      3 C03        127.0950   221.2850   229.0230 ca         1 DJM      -0.108000
      4 C04       -125.7280   220.9630   228.9330 ca         1 DJM      -0.068800
      5 C05        125.2760   219.5120   228.9860 c3         1 DJM      -0.048300
      6 C06       -124.7800   221.9940   228.8020 ca         1 DJM      -0.101500
      7 C07        125.1920   223.3410   228.7500 ca         1 DJM      -0.017200
      8 C08       -126.5610   223.6500   228.8490 ca         1 DJM      -0.101500
      9 C10        124.0820   225.3680   229.5370 cc         1 DJM      -0.191000
     10 C11       -122.9330   226.0100   229.1200 cd         1 DJM       0.225900
     11 C13        123.2210   224.4260   227.7160 cc         1 DJM       0.474800
     12 C15       -124.7410   223.4260   225.5290 c3         1 DJM      -0.066400
     13 C16        125.2300   224.8540   225.2550 c          1 DJM       0.609100
     14 N09       -124.2600   224.3690   228.6130 na         1 DJM      -0.047300
     15 N12        122.3980   225.4200   227.9800 nd         1 DJM      -0.617000
     16 N18       -124.5520   225.5170   224.2380 ns         1 DJM      -0.375400
     17 O17        126.1490   225.3670   225.8810 o          1 DJM      -0.558100
     18 O19       -124.7170   226.9420   224.0380 oh         1 DJM      -0.420100
     19 H1         129.2840   223.1510   230.1240 hc         1 DJM       0.046367
     20 H2        -129.2370   223.8700   228.5040 hc         1 DJM       0.046367
     21 H3         129.6230   222.1560   228.6970 hc         1 DJM       0.046367
     22 H4        -127.8300   220.4910   229.1300 ha         1 DJM       0.115000
     23 H5         125.0300   219.2170   230.0140 hc         1 DJM       0.046367
     24 H6        -126.0560   218.8350   228.6210 hc         1 DJM       0.046367
     25 H7         124.3840   219.3490   228.3690 hc         1 DJM       0.046367
     26 H8        -123.7220   221.7460   228.7450 ha         1 DJM       0.137000
     27 H9         126.8840   224.6890   228.8130 ha         1 DJM       0.137000
     28 H10       -124.7350   225.5370   230.3830 h4         1 DJM       0.161000
     29 H11        122.4540   226.8630   229.5860 h4         1 DJM       0.041100
     30 H12       -125.4670   222.9310   226.1830 h1         1 DJM       0.093700
     31 H13        124.7170   222.8850   224.5760 h1         1 DJM       0.093700
     32 H14       -123.6970   225.1070   223.8650 hn         1 DJM       0.335500
     33 H15        124.8830   227.0230   223.0690 ho         1 DJM       0.444000
     34 S14       -123.0420   223.3920   226.2950 ss         1 DJM      -0.307300
@<TRIPOS>BOND
     1     1     2 1   
     2     1    19 1   
     3     1    20 1   
     4     1    21 1   
     5     2     3 ar  
     6     2     8 ar  
     7     3     4 ar  
     8     3    22 1   
     9     4     5 1   
    10     4     6 ar  
    11     5    23 1   
    12     5    24 1   
    13     5    25 1   
    14     6     7 ar  
    15     6    26 1   
    16     7     8 ar  
    17     7    14 1   
    18     8    27 1   
    19     9    10 2   
    20     9    14 1   
    21     9    28 1   
    22    10    15 1   
    23    10    29 1   
    24    11    14 1   
    25    11    15 2   
    26    11    34 1   
    27    12    13 1   
    28    12    30 1   
    29    12    31 1   
    30    12    34 1   
    31    13    16 1   
    32    13    17 2   
    33    16    18 1   
    34    16    32 1   
    35    18    33 1   
@<TRIPOS>SUBSTRUCTURE
     1 DJM         1 TEMP              0 ****  ****    0 ROOT
