@<TRIPOS>MOLECULE
DJM
   34    35     1     0     0
SMALL
bcc


@<TRIPOS>ATOM
      1 C01       -128.9330   222.9880   228.9570 c3         1 DJM      -0.048300
      2 C02       -127.4770   222.6250   228.9170 ca         1 DJM      -0.068800
      3 C03       -127.0770   221.2930   228.9750 ca         1 DJM      -0.126000
      4 C04       -125.7340   220.9250   228.9680 ca         1 DJM      -0.068800
      5 C05       -125.3380   219.4810   229.0730 c3         1 DJM      -0.048300
      6 C06       -124.7680   221.9240   228.8990 ca         1 DJM      -0.119500
      7 C07       -125.1590   223.2520   228.8240 ca         1 DJM      -0.017200
      8 C08       -126.4990   223.6100   228.8280 ca         1 DJM      -0.119500
      9 C10       -124.0160   225.2920   229.6410 cc         1 DJM      -0.223600
     10 C11       -122.9890   226.0490   229.1560 cd         1 DJM       0.291200
     11 C13       -123.2710   224.4740   227.7500 cc         1 DJM       0.474800
     12 C15       -124.6710   223.5720   225.5260 c3         1 DJM      -0.114300
     13 C16       -125.0190   225.0200   225.2770 c          1 DJM       0.676100
     14 N09       -124.1770   224.2710   228.7460 na         1 DJM      -0.098000
     15 N12       -122.5410   225.5340   227.9760 nd         1 DJM      -0.617000
     16 N18       -124.6870   225.4440   224.0430 ns         1 DJM      -0.442400
     17 O17       -125.5510   225.7150   226.1200 o          1 DJM      -0.558100
     18 O19       -124.7220   226.7760   223.7610 oh         1 DJM      -0.381100
     19 H1        -129.3190   222.9200   229.9760 hc         1 DJM       0.046367
     20 H2        -129.1050   224.0050   228.6090 hc         1 DJM       0.046367
     21 H3        -129.5280   222.3130   228.3420 hc         1 DJM       0.046367
     22 H4        -127.8340   220.5180   229.0260 ha         1 DJM       0.133000
     23 H5        -125.3670   219.1460   230.1110 hc         1 DJM       0.046367
     24 H6        -126.0140   218.8400   228.5080 hc         1 DJM       0.046367
     25 H7        -124.3260   219.3130   228.7060 hc         1 DJM       0.046367
     26 H8        -123.7160   221.6700   228.9060 ha         1 DJM       0.155000
     27 H9        -126.7760   224.6530   228.7420 ha         1 DJM       0.155000
     28 H10       -124.6220   225.3720   230.5270 h4         1 DJM       0.179000
     29 H11       -122.5550   226.9340   229.5950 h4         1 DJM       0.041100
     30 H12       -125.4550   223.1010   226.1170 h1         1 DJM       0.093700
     31 H13       -124.5480   222.9990   224.6060 h1         1 DJM       0.093700
     32 H14       -124.0790   224.9040   223.4420 hn         1 DJM       0.335500
     33 H15       -125.5390   226.9220   223.2670 ho         1 DJM       0.405000
     34 S14       -123.0610   223.4270   226.3700 ss         1 DJM      -0.259400
@<TRIPOS>BOND
     1     1     2 1   
     2     1    19 1   
     3     1    20 1   
     4     1    21 1   
     5     2     3 ar  
     6     2     8 ar  
     7     3     4 ar  
     8     3    22 1   
     9     4     5 1   
    10     4     6 ar  
    11     5    23 1   
    12     5    24 1   
    13     5    25 1   
    14     6     7 ar  
    15     6    26 1   
    16     7     8 ar  
    17     7    14 1   
    18     8    27 1   
    19     9    10 2   
    20     9    14 1   
    21     9    28 1   
    22    10    15 1   
    23    10    29 1   
    24    11    14 1   
    25    11    15 2   
    26    11    34 1   
    27    12    13 1   
    28    12    30 1   
    29    12    31 1   
    30    12    34 1   
    31    13    16 1   
    32    13    17 2   
    33    16    18 1   
    34    16    32 1   
    35    18    33 1   
@<TRIPOS>SUBSTRUCTURE
     1 DJM         1 TEMP              0 ****  ****    0 ROOT
