@<TRIPOS>MOLECULE
DJN
   30    30     1     0     0
SMALL
No Charge or Current Charge


@<TRIPOS>ATOM
      1 O7          -3.0840    -1.4970     1.0880 o          1 DJN      -0.594100
      2 C7          -3.2450    -0.7450     0.1380 c          1 DJN       0.610100
      3 C8          -4.6010    -0.5310    -0.5210 c3         1 DJN      -0.181100
      4 N2          -2.2140    -0.0260    -0.4160 ns         1 DJN      -0.504900
      5 C2          -0.8140    -0.0290     0.0560 c6         1 DJN       0.113700
      6 C3          -0.0480     1.2300    -0.4630 c6         1 DJN       0.113300
      7 O3          -0.6910     2.4450    -0.0190 oh         1 DJN      -0.645000
      8 C4           1.4450     1.2140    -0.0070 c6         1 DJN       0.150300
      9 O4           1.5200     1.4470     1.4130 oh         1 DJN      -0.637000
     10 C5           2.1170    -0.1390    -0.4340 c6         1 DJN       0.180500
     11 C6           3.6150    -0.2340     0.0110 c3         1 DJN       0.163600
     12 O6           4.2620    -1.4250    -0.4840 oh         1 DJN      -0.677000
     13 N5           1.3480    -1.3280     0.0420 n7         1 DJN      -0.847400
     14 C1          -0.0650    -1.3140    -0.4100 c6         1 DJN       0.152800
     15 H1          -4.8350     0.5390    -0.5160 hc         1 DJN       0.058033
     16 H2          -4.5150    -0.7460    -1.5920 hc         1 DJN       0.058033
     17 H3          -5.3970    -1.1210    -0.0520 hc         1 DJN       0.058033
     18 H4          -2.4570     0.5940    -1.1790 hn         1 DJN       0.302500
     19 H5          -0.8150    -0.0140     1.1560 h1         1 DJN       0.120700
     20 H6          -0.0620     1.1970    -1.5620 h1         1 DJN       0.027700
     21 H7          -0.4620     3.1480    -0.6670 ho         1 DJN       0.441000
     22 H8           1.9670     2.0280    -0.5310 h1         1 DJN       0.023700
     23 H9           0.7660     2.0500     1.6050 ho         1 DJN       0.455000
     24 H10          2.1170    -0.1630    -1.5340 h1         1 DJN       0.026700
     25 H11          4.1390     0.6590    -0.3560 h1         1 DJN       0.039700
     26 H12          3.6560    -0.2110     1.1080 h1         1 DJN       0.039700
     27 H13          5.1740    -1.4290    -0.1160 ho         1 DJN       0.450000
     28 H14          1.8220    -2.1690    -0.3160 hn         1 DJN       0.435000
     29 H16         -0.5770    -2.2030    -0.0130 h1         1 DJN       0.034700
     30 H17         -0.0970    -1.3780    -1.5080 h1         1 DJN       0.034700
@<TRIPOS>BOND
     1     1     2 2   
     2     2     3 1   
     3     2     4 1   
     4     3    15 1   
     5     3    16 1   
     6     3    17 1   
     7     4     5 1   
     8     4    18 1   
     9     5     6 1   
    10     5    14 1   
    11     5    19 1   
    12     6     7 1   
    13     6     8 1   
    14     6    20 1   
    15     7    21 1   
    16     8     9 1   
    17     8    10 1   
    18     8    22 1   
    19     9    23 1   
    20    10    11 1   
    21    10    13 1   
    22    10    24 1   
    23    11    12 1   
    24    11    25 1   
    25    11    26 1   
    26    12    27 1   
    27    13    14 1   
    28    13    28 1   
    29    14    29 1   
    30    14    30 1   
@<TRIPOS>SUBSTRUCTURE
     1 DJN         1 TEMP              0 ****  ****    0 ROOT
