@<TRIPOS>MOLECULE
DJN
   30    30     1     0     0
SMALL
bcc


@<TRIPOS>ATOM
      1 O7          -3.2340    -0.0840     1.4310 o          1 DJN      -0.594100
      2 C7          -3.2310    -0.2250     0.2160 c          1 DJN       0.677100
      3 C8          -4.5170    -0.2810    -0.5740 c3         1 DJN      -0.181100
      4 N2          -2.1100    -0.3450    -0.5160 ns         1 DJN      -0.571900
      5 C2          -0.7690    -0.2470     0.0070 c6         1 DJN       0.113700
      6 C3          -0.1100     1.0620    -0.4210 c6         1 DJN       0.090100
      7 O3          -0.8510     2.1310     0.1210 oh         1 DJN      -0.582800
      8 C4           1.3500     1.1150     0.0370 c6         1 DJN       0.127100
      9 O4           1.4400     1.1890     1.4400 oh         1 DJN      -0.574800
     10 C5           2.0920    -0.1200    -0.4580 c6         1 DJN       0.180500
     11 C6           3.5460    -0.1100    -0.0260 c3         1 DJN       0.140400
     12 O6           4.2020    -1.1930    -0.6530 oh         1 DJN      -0.614800
     13 N5           1.4230    -1.3120     0.0260 n7         1 DJN      -0.792200
     14 C1           0.0710    -1.4280    -0.4740 c6         1 DJN       0.152800
     15 H1          -5.0170     0.6860    -0.5140 hc         1 DJN       0.058033
     16 H2          -4.3760    -0.5260    -1.6250 hc         1 DJN       0.058033
     17 H3          -5.1850    -1.0200    -0.1320 hc         1 DJN       0.058033
     18 H4          -2.2060    -0.4320    -1.5160 hn         1 DJN       0.302500
     19 H5          -0.8320    -0.2820     1.0950 h1         1 DJN       0.120700
     20 H6          -0.1160     1.1020    -1.5210 h1         1 DJN       0.027700
     21 H7          -0.6060     2.9380    -0.3440 ho         1 DJN       0.402000
     22 H8           1.8180     1.9960    -0.4310 h1         1 DJN       0.023700
     23 H9           0.8450     1.8900     1.7280 ho         1 DJN       0.416000
     24 H10          2.0740    -0.0580    -1.5620 h1         1 DJN       0.026700
     25 H11          3.9940     0.8500    -0.3150 h1         1 DJN       0.039700
     26 H12          3.6060    -0.1870     1.0650 h1         1 DJN       0.039700
     27 H13          5.0620    -1.3050    -0.2400 ho         1 DJN       0.411000
     28 H14          1.9530    -2.1300    -0.2470 hn         1 DJN       0.379800
     29 H16         -0.3710    -2.3530    -0.1000 h1         1 DJN       0.034700
     30 H17          0.0230    -1.4740    -1.5770 h1         1 DJN       0.034700
@<TRIPOS>BOND
     1     1     2 2   
     2     2     3 1   
     3     2     4 1   
     4     3    15 1   
     5     3    16 1   
     6     3    17 1   
     7     4     5 1   
     8     4    18 1   
     9     5     6 1   
    10     5    14 1   
    11     5    19 1   
    12     6     7 1   
    13     6     8 1   
    14     6    20 1   
    15     7    21 1   
    16     8     9 1   
    17     8    10 1   
    18     8    22 1   
    19     9    23 1   
    20    10    11 1   
    21    10    13 1   
    22    10    24 1   
    23    11    12 1   
    24    11    25 1   
    25    11    26 1   
    26    12    27 1   
    27    13    14 1   
    28    13    28 1   
    29    14    29 1   
    30    14    30 1   
@<TRIPOS>SUBSTRUCTURE
     1 DJN         1 TEMP              0 ****  ****    0 ROOT
