@<TRIPOS>MOLECULE
DJO
   38    40     1     0     0
SMALL
No Charge or Current Charge


@<TRIPOS>ATOM
      1 CAE          2.9460    -1.1720    -0.3400 c5         1 DJO       0.121700
      2 CAF          3.7530     0.1410    -0.7260 c5         1 DJO      -0.043100
      3 CAG          2.8420     1.2430    -0.2150 ca         1 DJO      -0.143300
      4 CAH          1.5940     0.7680     0.1310 ca         1 DJO      -0.014000
      5 CAI          3.5100    -1.8050     0.9650 c3         1 DJO       0.149600
      6 CAJ          3.1530     2.6070    -0.1050 ca         1 DJO      -0.073000
      7 CAK          0.5750     1.6450     0.5550 ca         1 DJO      -0.115000
      8 CAM          2.1610     3.4950     0.3520 ca         1 DJO      -0.136000
      9 CAN          0.8750     3.0160     0.6780 ca         1 DJO      -0.090000
     10 CAO         -1.9530    -1.5380    -0.5140 c3         1 DJO       0.229900
     11 CAP         -3.1300    -0.6050    -0.2670 ca         1 DJO      -0.102300
     12 CAQ         -3.6940    -0.4970     1.0200 ca         1 DJO      -0.084000
     13 CAR         -3.6590     0.1680    -1.3210 ca         1 DJO      -0.084000
     14 CAS         -4.7780     0.3690     1.2490 ca         1 DJO      -0.116500
     15 CAT         -4.7420     1.0340    -1.0900 ca         1 DJO      -0.116500
     16 CAU         -5.3020     1.1340     0.1940 ca         1 DJO      -0.098000
     17 NAD          1.5680    -0.6230    -0.1660 n          1 DJO      -0.213400
     18 OAA          2.7950    -2.9910     1.3420 oh         1 DJO      -0.641000
     19 OAB         -0.7450    -0.8040    -0.2680 os         1 DJO      -0.452100
     20 OAC          0.5350    -2.6220    -0.7770 o          1 DJO      -0.520000
     21 H1           3.0000    -1.9140    -1.1470 h1         1 DJO       0.095700
     22 H2           4.7540     0.1710    -0.2800 hc         1 DJO       0.063200
     23 H3           3.8830     0.2150    -1.8120 hc         1 DJO       0.063200
     24 H4           4.5690    -2.0450     0.8070 h1         1 DJO       0.024200
     25 H5           3.4570    -1.0610     1.7720 h1         1 DJO       0.024200
     26 H6           4.1410     2.9740    -0.3760 ha         1 DJO       0.114000
     27 H7          -0.4200     1.2940     0.8120 ha         1 DJO       0.140000
     28 H8           2.3840     4.5560     0.4450 ha         1 DJO       0.114000
     29 H9           0.1090     3.7090     1.0210 ha         1 DJO       0.113000
     30 H10         -2.0260    -2.4070     0.1550 h1         1 DJO       0.057700
     31 H11         -1.9840    -1.9040    -1.5490 h1         1 DJO       0.057700
     32 H12         -3.2910    -1.0840     1.8430 ha         1 DJO       0.116000
     33 H13         -3.2280     0.0990    -2.3170 ha         1 DJO       0.116000
     34 H14         -5.2090     0.4480     2.2450 ha         1 DJO       0.114000
     35 H15         -5.1460     1.6280    -1.9070 ha         1 DJO       0.114000
     36 H16         -6.1400     1.8050     0.3720 ha         1 DJO       0.113000
     37 H17          3.2060    -3.3250     2.1700 ho         1 DJO       0.443000
     38 CAL          0.4470    -1.4530    -0.4230 c          1 DJO       0.661100
@<TRIPOS>BOND
     1     1     2 1   
     2     1     5 1   
     3     1    17 1   
     4     1    21 1   
     5     2     3 1   
     6     2    22 1   
     7     2    23 1   
     8     3     4 ar  
     9     3     6 ar  
    10     4     7 ar  
    11     4    17 1   
    12     5    18 1   
    13     5    24 1   
    14     5    25 1   
    15     6     8 ar  
    16     6    26 1   
    17     7     9 ar  
    18     7    27 1   
    19     8     9 ar  
    20     8    28 1   
    21     9    29 1   
    22    10    11 1   
    23    10    19 1   
    24    10    30 1   
    25    10    31 1   
    26    11    12 ar  
    27    11    13 ar  
    28    12    14 ar  
    29    12    32 1   
    30    13    15 ar  
    31    13    33 1   
    32    14    16 ar  
    33    14    34 1   
    34    15    16 ar  
    35    15    35 1   
    36    16    36 1   
    37    17    38 1   
    38    18    37 1   
    39    19    38 1   
    40    20    38 2   
@<TRIPOS>SUBSTRUCTURE
     1 DJO         1 TEMP              0 ****  ****    0 ROOT
