@<TRIPOS>MOLECULE
DJO
   38    40     1     0     0
SMALL
bcc


@<TRIPOS>ATOM
      1 CAE          2.8770    -1.1510    -0.3650 c5         1 DJO       0.121700
      2 CAF          3.6380     0.1020    -0.8160 c5         1 DJO      -0.043100
      3 CAG          2.7860     1.2110    -0.2710 ca         1 DJO      -0.143300
      4 CAH          1.5220     0.7170     0.0580 ca         1 DJO       0.078600
      5 CAI          3.4420    -1.6560     0.9520 c3         1 DJO       0.126400
      6 CAJ          3.0900     2.5460    -0.0930 ca         1 DJO      -0.091000
      7 CAK          0.5500     1.5550     0.5860 ca         1 DJO      -0.133000
      8 CAM          2.1190     3.4000     0.4260 ca         1 DJO      -0.154000
      9 CAN          0.8680     2.9010     0.7580 ca         1 DJO      -0.108000
     10 CAO         -1.9200    -1.5730    -0.5340 c3         1 DJO       0.206700
     11 CAP         -3.0590    -0.6330    -0.2840 ca         1 DJO      -0.102300
     12 CAQ         -3.6250    -0.5350     0.9840 ca         1 DJO      -0.102000
     13 CAR         -3.5420     0.1780    -1.3060 ca         1 DJO      -0.102000
     14 CAS         -4.6590     0.3580     1.2270 ca         1 DJO      -0.134500
     15 CAT         -4.5750     1.0720    -1.0670 ca         1 DJO      -0.134500
     16 CAU         -5.1360     1.1640     0.2010 ca         1 DJO      -0.116000
     17 NAD          1.5000    -0.6670    -0.1960 n          1 DJO      -0.373000
     18 OAA          2.6400    -2.6910     1.4560 oh         1 DJO      -0.578800
     19 OAB         -0.7170    -0.8400    -0.2660 os         1 DJO      -0.428900
     20 OAC          0.5260    -2.6270    -0.8070 o          1 DJO      -0.569000
     21 H1           2.9020    -1.9400    -1.1150 h1         1 DJO       0.095700
     22 H2           4.6600     0.1200    -0.4360 hc         1 DJO       0.063200
     23 H3           3.6980     0.1600    -1.9050 hc         1 DJO       0.063200
     24 H4           4.4730    -1.9860     0.7620 h1         1 DJO       0.024200
     25 H5           3.5040    -0.8140     1.6570 h1         1 DJO       0.024200
     26 H6           4.0720     2.9220    -0.3530 ha         1 DJO       0.132000
     27 H7          -0.4280     1.1990     0.8680 ha         1 DJO       0.158000
     28 H8           2.3420     4.4480     0.5760 ha         1 DJO       0.132000
     29 H9           0.1170     3.5640     1.1690 ha         1 DJO       0.131000
     30 H10         -1.9780    -2.4440     0.1220 h1         1 DJO       0.057700
     31 H11         -1.9200    -1.9230    -1.5680 h1         1 DJO       0.057700
     32 H12         -3.2580    -1.1660     1.7850 ha         1 DJO       0.134000
     33 H13         -3.1100     0.1070    -2.2980 ha         1 DJO       0.134000
     34 H14         -5.0950     0.4220     2.2150 ha         1 DJO       0.132000
     35 H15         -4.9450     1.6970    -1.8700 ha         1 DJO       0.132000
     36 H16         -5.9450     1.8580     0.3860 ha         1 DJO       0.131000
     37 H17          2.9580    -2.9110     2.3360 ho         1 DJO       0.404000
     38 CAL          0.4370    -1.4740    -0.4460 c          1 DJO       0.777100
@<TRIPOS>BOND
     1     1     2 1   
     2     1     5 1   
     3     1    17 1   
     4     1    21 1   
     5     2     3 1   
     6     2    22 1   
     7     2    23 1   
     8     3     4 ar  
     9     3     6 ar  
    10     4     7 ar  
    11     4    17 1   
    12     5    18 1   
    13     5    24 1   
    14     5    25 1   
    15     6     8 ar  
    16     6    26 1   
    17     7     9 ar  
    18     7    27 1   
    19     8     9 ar  
    20     8    28 1   
    21     9    29 1   
    22    10    11 1   
    23    10    19 1   
    24    10    30 1   
    25    10    31 1   
    26    11    12 ar  
    27    11    13 ar  
    28    12    14 ar  
    29    12    32 1   
    30    13    15 ar  
    31    13    33 1   
    32    14    16 ar  
    33    14    34 1   
    34    15    16 ar  
    35    15    35 1   
    36    16    36 1   
    37    17    38 1   
    38    18    37 1   
    39    19    38 1   
    40    20    38 2   
@<TRIPOS>SUBSTRUCTURE
     1 DJO         1 TEMP              0 ****  ****    0 ROOT
