@<TRIPOS>MOLECULE
DJP
   11    11     1     0     0
SMALL
abcg2


@<TRIPOS>ATOM
      1 C3          -2.0860    27.6410    54.0300 ca         1 DJP       0.119400
      2 C2          -3.3930    26.1160    52.9890 ca         1 DJP       0.337300
      3 C1          -1.2790    25.4680    53.4920 ca         1 DJP       0.119400
      4 O           -4.5920    25.8370    52.4550 oh         1 DJP      -0.613300
      5 N           -2.4620    25.1650    52.9590 nb         1 DJP      -0.201000
      6 N1          -3.2690    27.3380    53.4980 nb         1 DJP      -0.201000
      7 C           -1.0580    26.7160    54.0410 ca         1 DJP       0.014000
      8 F            0.1390    27.0270    54.5740 f          1 DJP      -0.160000
      9 H2          -1.9530    28.6300    54.4530 h4         1 DJP       0.046100
     10 H           -0.5020    24.7120    53.4830 h4         1 DJP       0.046100
     11 H3          -4.5730    24.9300    52.1110 ho         1 DJP       0.493000
@<TRIPOS>BOND
     1     1     6 ar  
     2     1     7 ar  
     3     1     9 1   
     4     2     4 1   
     5     2     5 ar  
     6     2     6 ar  
     7     3     5 ar  
     8     3     7 ar  
     9     3    10 1   
    10     4    11 1   
    11     7     8 1   
@<TRIPOS>SUBSTRUCTURE
     1 DJP         1 TEMP              0 ****  ****    0 ROOT
