@<TRIPOS>MOLECULE
DJP
   11    11     1     0     0
SMALL
No Charge or Current Charge


@<TRIPOS>ATOM
      1 C3          -2.0770    27.6630    54.0400 ca         1 DJP       0.119400
      2 C2          -3.4160    26.1250    52.9820 ca         1 DJP       0.337300
      3 C1          -1.2760    25.4610    53.4880 ca         1 DJP       0.119400
      4 O           -4.6220    25.8190    52.4390 oh         1 DJP      -0.613300
      5 N           -2.4760    25.1580    52.9480 nb         1 DJP      -0.201000
      6 N1          -3.2780    27.3630    53.5010 nb         1 DJP      -0.201000
      7 C           -1.0300    26.7240    54.0550 ca         1 DJP       0.014000
      8 F            0.1720    27.0260    54.5950 f          1 DJP      -0.160000
      9 H2          -1.9560    28.6590    54.4610 h4         1 DJP       0.046100
     10 H           -0.5100    24.6870    53.4660 h4         1 DJP       0.046100
     11 H3          -4.5590    24.8960    52.1110 ho         1 DJP       0.493000
@<TRIPOS>BOND
     1     1     6 ar  
     2     1     7 ar  
     3     1     9 1   
     4     2     4 1   
     5     2     5 ar  
     6     2     6 ar  
     7     3     5 ar  
     8     3     7 ar  
     9     3    10 1   
    10     4    11 1   
    11     7     8 1   
@<TRIPOS>SUBSTRUCTURE
     1 DJP         1 TEMP              0 ****  ****    0 ROOT
