@<TRIPOS>MOLECULE
DJQ
   64    70     1     0     0
SMALL
No Charge or Current Charge


@<TRIPOS>ATOM
      1 C4           6.0430    -0.5910     0.7360 cc         1 DJQ       0.594300
      2 C7           4.3420    -0.9250     1.8770 cd         1 DJQ       0.451300
      3 C13          0.1220     0.2940    -1.1680 c6         1 DJQ      -0.109900
      4 C17         -1.1400     0.3900     0.9900 c6         1 DJQ      -0.109900
      5 C20         -5.6900    -0.2490    -1.3230 ca         1 DJQ      -0.036000
      6 C21         -6.9580    -0.5750    -0.7940 ca         1 DJQ      -0.138000
      7 C22         -7.0440    -1.6980     0.0330 ca         1 DJQ      -0.026200
      8 C24         -4.6880    -2.1790    -0.1840 ca         1 DJQ       0.001000
      9 C1           7.3880     0.0010    -1.3990 cx         1 DJQ      -0.106900
     10 C2           7.1170     0.1790     0.0820 cx         1 DJQ      -0.185000
     11 C3           6.7710     1.2850    -0.8960 cx         1 DJQ      -0.106900
     12 N5           5.9080    -1.9050     0.6620 nd         1 DJQ      -0.378300
     13 O6           4.7480    -2.1440     1.4310 os         1 DJQ      -0.077700
     14 N8           5.1080     0.0670     1.4760 nc         1 DJQ      -0.715000
     15 C9           3.0710    -0.7750     2.6810 c3         1 DJQ       0.081700
     16 N10          1.9910    -0.0430     1.9740 n          1 DJQ      -0.426800
     17 C11          1.2210    -0.6750     1.0000 c          1 DJQ       0.567000
     18 C12          0.2880     0.4370     0.3780 c5         1 DJQ       0.196200
     19 C14         -0.6970    -0.9540    -1.5780 c6         1 DJQ       0.089500
     20 N15         -2.0250    -0.9890    -0.9100 n          1 DJQ      -0.390800
     21 C16         -1.9310    -0.8730     0.5710 c6         1 DJQ       0.089500
     22 C18         -3.2090    -0.6650    -1.6160 c          1 DJQ       0.608700
     23 C19         -4.5430    -1.0310    -1.0080 ca         1 DJQ      -0.185600
     24 C23         -5.9630    -2.4640     0.3200 ca         1 DJQ      -0.244900
     25 C25         -6.4470    -3.5260     1.1660 cc         1 DJQ       0.360800
     26 N26         -7.7680    -3.4170     1.3910 nd         1 DJQ      -0.514100
     27 N27         -8.1250    -2.2650     0.6740 na         1 DJQ      -0.060400
     28 O28         -3.1580    -0.1770    -2.7380 o          1 DJQ      -0.589100
     29 N29          1.0030     1.6830     0.8120 nh         1 DJQ      -0.863400
     30 C30          1.8560     1.4050     1.9820 c5         1 DJQ       0.411200
     31 C31          1.2630     2.7690    -0.0430 ca         1 DJQ       0.350000
     32 C32          2.5570     2.9890    -0.5470 ca         1 DJQ      -0.188500
     33 C33          2.8110     4.0710    -1.4080 ca         1 DJQ      -0.065500
     34 C34          1.7650     4.9380    -1.7670 ca         1 DJQ      -0.157000
     35 C35          0.4700     4.7230    -1.2680 ca         1 DJQ      -0.065500
     36 C36          0.2230     3.6390    -0.4070 ca         1 DJQ      -0.188500
     37 O37          1.3380    -1.8580     0.7010 o          1 DJQ      -0.529000
     38 H2           1.1100     0.2590    -1.6460 hc         1 DJQ       0.066950
     39 H3          -1.0780     0.4340     2.0860 hc         1 DJQ       0.066950
     40 H4          -1.7010     1.2810     0.6800 hc         1 DJQ       0.066950
     41 H5          -5.5940     0.6200    -1.9720 ha         1 DJQ       0.126000
     42 H6          -7.8350     0.0250    -1.0270 ha         1 DJQ       0.124000
     43 H7          -3.8470    -2.8330     0.0410 ha         1 DJQ       0.129000
     44 H8           8.4230     0.0320    -1.7330 hc         1 DJQ       0.081950
     45 H9           6.7510    -0.6780    -1.9610 hc         1 DJQ       0.081950
     46 H10          7.9730     0.3360     0.7320 hc         1 DJQ       0.105700
     47 H11          7.3910     2.1790    -0.8910 hc         1 DJQ       0.081950
     48 H12          5.7220     1.4630    -1.1210 hc         1 DJQ       0.081950
     49 H13          2.7130    -1.7730     2.9630 h1         1 DJQ       0.097200
     50 H14          3.3160    -0.2440     3.6090 h1         1 DJQ       0.097200
     51 H15         -0.8160    -0.9660    -2.6710 h1         1 DJQ       0.072700
     52 H16         -0.1470    -1.8700    -1.3220 h1         1 DJQ       0.072700
     53 H17         -1.4460    -1.7730     0.9750 h1         1 DJQ       0.072700
     54 H18         -2.9280    -0.8100     1.0280 h1         1 DJQ       0.072700
     55 H19         -5.9290    -4.3590     1.6230 h4         1 DJQ       0.052800
     56 H21          1.3680     1.6800     2.9260 h2         1 DJQ       0.048700
     57 H22          2.8620     1.8320     1.8920 h2         1 DJQ       0.048700
     58 H23          3.3650     2.3140    -0.2810 ha         1 DJQ       0.113500
     59 H24          3.8140     4.2340    -1.7970 ha         1 DJQ       0.111000
     60 H25          1.9590     5.7750    -2.4340 ha         1 DJQ       0.116000
     61 H26         -0.3400     5.3940    -1.5460 ha         1 DJQ       0.111000
     62 H27         -0.7770     3.4740    -0.0190 ha         1 DJQ       0.113500
     63 H20         -9.0840    -1.9210     0.6540 hn         1 DJQ       0.378000
     64 H1          -0.3850     1.1800    -1.5710 hc         1 DJQ       0.066950
@<TRIPOS>BOND
     1     1    10 1   
     2     1    12 2   
     3     1    14 1   
     4     2    13 1   
     5     2    14 2   
     6     2    15 1   
     7     3    18 1   
     8     3    19 1   
     9     3    38 1   
    10     3    64 1   
    11     4    18 1   
    12     4    21 1   
    13     4    39 1   
    14     4    40 1   
    15     5     6 ar  
    16     5    23 ar  
    17     5    41 1   
    18     6     7 ar  
    19     6    42 1   
    20     7    24 ar  
    21     7    27 1   
    22     8    23 ar  
    23     8    24 ar  
    24     8    43 1   
    25     9    10 1   
    26     9    11 1   
    27     9    44 1   
    28     9    45 1   
    29    10    11 1   
    30    10    46 1   
    31    11    47 1   
    32    11    48 1   
    33    12    13 1   
    34    15    16 1   
    35    15    49 1   
    36    15    50 1   
    37    16    17 1   
    38    16    30 1   
    39    17    18 1   
    40    17    37 2   
    41    18    29 1   
    42    19    20 1   
    43    19    51 1   
    44    19    52 1   
    45    20    21 1   
    46    20    22 1   
    47    21    53 1   
    48    21    54 1   
    49    22    23 1   
    50    22    28 2   
    51    24    25 1   
    52    25    26 2   
    53    25    55 1   
    54    26    27 1   
    55    27    63 1   
    56    29    30 1   
    57    29    31 1   
    58    30    56 1   
    59    30    57 1   
    60    31    32 ar  
    61    31    36 ar  
    62    32    33 ar  
    63    32    58 1   
    64    33    34 ar  
    65    33    59 1   
    66    34    35 ar  
    67    34    60 1   
    68    35    36 ar  
    69    35    61 1   
    70    36    62 1   
@<TRIPOS>SUBSTRUCTURE
     1 DJQ         1 TEMP              0 ****  ****    0 ROOT
