@<TRIPOS>MOLECULE
DJQ
   64    70     1     0     0
SMALL
bcc


@<TRIPOS>ATOM
      1 C4           6.5650    -0.4660     0.2260 cc         1 DJQ       0.594300
      2 C7           4.7100    -0.3420     1.1440 cd         1 DJQ       0.495700
      3 C13          0.2670    -0.2680    -1.2480 c6         1 DJQ      -0.109900
      4 C17         -0.9920    -0.0320     0.9980 c6         1 DJQ      -0.109900
      5 C20         -4.9210     0.4320    -0.9210 ca         1 DJQ      -0.054000
      6 C21         -6.1720     0.5930    -0.3770 ca         1 DJQ      -0.156000
      7 C22         -6.7390    -0.5250     0.2460 ca         1 DJQ      -0.026200
      8 C24         -4.7830    -1.8880    -0.2160 ca         1 DJQ      -0.017000
      9 C1           8.6760    -1.7010    -0.5540 cx         1 DJQ      -0.106900
     10 C2           8.0210    -0.4900     0.0680 cx         1 DJQ      -0.185000
     11 C3           8.6400    -0.4130    -1.2980 cx         1 DJQ      -0.106900
     12 N5           5.7230    -0.6570    -0.7440 nd         1 DJQ      -0.378300
     13 O6           4.4950    -0.5850    -0.1360 os         1 DJQ      -0.122100
     14 N8           5.9610    -0.2530     1.4360 nc         1 DJQ      -0.715000
     15 C9           3.5410    -0.2390     2.0670 c3         1 DJQ       0.081700
     16 N10          2.3490     0.1860     1.3980 n          1 DJQ      -0.493800
     17 C11          1.4130    -0.6530     0.9240 c          1 DJQ       0.709500
     18 C12          0.3350     0.1700     0.2320 c5         1 DJQ       0.196200
     19 C14         -0.5590    -1.5290    -1.4650 c6         1 DJQ       0.089500
     20 N15         -1.8570    -1.4150    -0.8210 n          1 DJQ      -0.457800
     21 C16         -1.7300    -1.3140     0.6260 c6         1 DJQ       0.089500
     22 C18         -2.8930    -0.8860    -1.5180 c          1 DJQ       0.675700
     23 C19         -4.2160    -0.7910    -0.8320 ca         1 DJQ      -0.185600
     24 C23         -6.0660    -1.7580     0.3240 ca         1 DJQ      -0.244900
     25 C25         -6.9750    -2.6080     1.0100 cc         1 DJQ       0.360800
     26 N26         -8.0710    -1.9610     1.3170 nd         1 DJQ      -0.514100
     27 N27         -7.9270    -0.7150     0.8580 na         1 DJQ      -0.010100
     28 O28         -2.7880    -0.5200    -2.6810 o          1 DJQ      -0.589100
     29 N29          0.8530     1.5220     0.3800 nh         1 DJQ      -0.725000
     30 C30          2.1010     1.5680     1.0990 c5         1 DJQ       0.411200
     31 C31          0.2640     2.6910    -0.0460 ca         1 DJQ       0.211600
     32 C32          0.8870     3.9220     0.2250 ca         1 DJQ      -0.206500
     33 C33          0.3210     5.1170    -0.1890 ca         1 DJQ      -0.083500
     34 C34         -0.8790     5.1410    -0.8840 ca         1 DJQ      -0.175000
     35 C35         -1.5010     3.9320    -1.1610 ca         1 DJQ      -0.083500
     36 C36         -0.9480     2.7280    -0.7560 ca         1 DJQ      -0.206500
     37 O37          1.4260    -1.8630     1.0350 o          1 DJQ      -0.604500
     38 H2           1.2810    -0.4200    -1.6280 hc         1 DJQ       0.066950
     39 H3          -0.7950    -0.0230     2.0730 hc         1 DJQ       0.066950
     40 H4          -1.6580     0.8130     0.8140 hc         1 DJQ       0.066950
     41 H5          -4.4560     1.2700    -1.4230 ha         1 DJQ       0.144000
     42 H6          -6.6910     1.5390    -0.4330 ha         1 DJQ       0.142000
     43 H7          -4.2550    -2.8330    -0.1620 ha         1 DJQ       0.147000
     44 H8           9.6140    -2.0270    -0.1230 hc         1 DJQ       0.081950
     45 H9           8.0260    -2.5010    -0.8820 hc         1 DJQ       0.081950
     46 H10          8.5500    -0.0170     0.8860 hc         1 DJQ       0.105700
     47 H11          9.5550     0.1580    -1.3850 hc         1 DJQ       0.081950
     48 H12          7.9740    -0.3300    -2.1470 hc         1 DJQ       0.081950
     49 H13          3.3660    -1.2150     2.5250 h1         1 DJQ       0.097200
     50 H14          3.7940     0.4500     2.8730 h1         1 DJQ       0.097200
     51 H15         -0.6870    -1.7120    -2.5290 h1         1 DJQ       0.072700
     52 H16         -0.0570    -2.4010    -1.0450 h1         1 DJQ       0.072700
     53 H17         -1.1980    -2.1950     0.9840 h1         1 DJQ       0.072700
     54 H18         -2.7040    -1.3140     1.1050 h1         1 DJQ       0.072700
     55 H19         -6.8520    -3.6450     1.2800 h4         1 DJQ       0.052800
     56 H21          2.0340     2.1540     2.0240 h2         1 DJQ       0.048700
     57 H22          2.9130     1.9940     0.4940 h2         1 DJQ       0.048700
     58 H23          1.8230     3.9630     0.7660 ha         1 DJQ       0.131500
     59 H24          0.8340     6.0430     0.0400 ha         1 DJQ       0.129000
     60 H25         -1.3190     6.0770    -1.2020 ha         1 DJQ       0.134000
     61 H26         -2.4370     3.9140    -1.7060 ha         1 DJQ       0.129000
     62 H27         -1.4770     1.8220    -1.0080 ha         1 DJQ       0.131500
     63 H20         -8.6670    -0.0450     0.9950 hn         1 DJQ       0.327700
     64 H1          -0.1590     0.5350    -1.8490 hc         1 DJQ       0.066950
@<TRIPOS>BOND
     1     1    10 1   
     2     1    12 2   
     3     1    14 1   
     4     2    13 1   
     5     2    14 2   
     6     2    15 1   
     7     3    18 1   
     8     3    19 1   
     9     3    38 1   
    10     3    64 1   
    11     4    18 1   
    12     4    21 1   
    13     4    39 1   
    14     4    40 1   
    15     5     6 ar  
    16     5    23 ar  
    17     5    41 1   
    18     6     7 ar  
    19     6    42 1   
    20     7    24 ar  
    21     7    27 1   
    22     8    23 ar  
    23     8    24 ar  
    24     8    43 1   
    25     9    10 1   
    26     9    11 1   
    27     9    44 1   
    28     9    45 1   
    29    10    11 1   
    30    10    46 1   
    31    11    47 1   
    32    11    48 1   
    33    12    13 1   
    34    15    16 1   
    35    15    49 1   
    36    15    50 1   
    37    16    17 1   
    38    16    30 1   
    39    17    18 1   
    40    17    37 2   
    41    18    29 1   
    42    19    20 1   
    43    19    51 1   
    44    19    52 1   
    45    20    21 1   
    46    20    22 1   
    47    21    53 1   
    48    21    54 1   
    49    22    23 1   
    50    22    28 2   
    51    24    25 1   
    52    25    26 2   
    53    25    55 1   
    54    26    27 1   
    55    27    63 1   
    56    29    30 1   
    57    29    31 1   
    58    30    56 1   
    59    30    57 1   
    60    31    32 ar  
    61    31    36 ar  
    62    32    33 ar  
    63    32    58 1   
    64    33    34 ar  
    65    33    59 1   
    66    34    35 ar  
    67    34    60 1   
    68    35    36 ar  
    69    35    61 1   
    70    36    62 1   
@<TRIPOS>SUBSTRUCTURE
     1 DJQ         1 TEMP              0 ****  ****    0 ROOT
