@<TRIPOS>MOLECULE
DJS
   67    69     1     0     0
SMALL
No Charge or Current Charge


@<TRIPOS>ATOM
      1 C6          -3.4070     1.4200     0.1640 ca         1 DJS       0.220900
      2 N1           1.3450     0.3660    -0.3830 ns         1 DJS      -0.489900
      3 C5          -2.0490     1.8100     0.2480 ca         1 DJS      -0.096000
      4 C4          -1.0230     0.8780    -0.0230 ca         1 DJS      -0.081600
      5 C2           0.4320     1.2870     0.0770 c          1 DJS       0.609700
      6 O3           0.7800     2.3540     0.5630 o          1 DJS      -0.590100
      7 N7          -3.7650     0.1420    -0.1730 nb         1 DJS      -0.706000
      8 C8          -2.7930    -0.7350    -0.4090 ca         1 DJS       0.618900
      9 C9          -1.4260    -0.4350    -0.3610 ca         1 DJS      -0.176000
     10 N10         -3.3010    -1.9650    -0.7160 nu         1 DJS      -0.934100
     11 C11         -2.6270    -3.2620    -0.6090 c3         1 DJS       0.242500
     12 C13         -2.3900    -3.5920     0.8780 c3         1 DJS      -0.121100
     13 C14         -3.4690    -4.3520    -1.3140 c3         1 DJS      -0.087400
     14 C15         -3.5940    -4.1640    -2.8430 c3         1 DJS      -0.088100
     15 S16         -4.7260     2.6740     0.4940 sy         1 DJS       0.983100
     16 O17         -5.9140     2.0110     1.0580 o          1 DJS      -0.513000
     17 O18         -4.1340     3.8450     1.1610 o          1 DJS      -0.513000
     18 C19         -5.2080     3.2280    -1.1490 c3         1 DJS      -0.329100
     19 C20          2.8060     0.4660    -0.2440 c3         1 DJS       0.091700
     20 C22          3.4200     1.5640    -1.1770 c3         1 DJS       0.153300
     21 O24          3.1000     1.2910    -2.5600 oh         1 DJS      -0.653000
     22 C25          4.9620     1.7650    -1.0090 c5         1 DJS       0.110500
     23 C27          5.5580     2.9390    -1.8220 c5         1 DJS      -0.107400
     24 C28          6.9740     3.0750    -1.1920 c5         1 DJS      -0.113400
     25 C29          6.8120     2.4530     0.2270 c5         1 DJS       0.133800
     26 N30          5.3670     2.1580     0.3590 n7         1 DJS      -0.827400
     27 C31          3.4400    -0.9450    -0.4050 c3         1 DJS      -0.046100
     28 C32          2.6590    -2.0340     0.3280 ca         1 DJS      -0.075300
     29 C33          1.9420    -3.0090    -0.3960 ca         1 DJS      -0.108000
     30 C34          1.1980    -3.9910     0.2810 ca         1 DJS      -0.110500
     31 C35          1.1660    -4.0060     1.6850 ca         1 DJS      -0.112000
     32 C36          1.8790    -3.0380     2.4130 ca         1 DJS      -0.110500
     33 C37          2.6230    -2.0560     1.7360 ca         1 DJS      -0.108000
     34 H1           0.9700    -0.4830    -0.7820 hn         1 DJS       0.322500
     35 H2          -1.7960     2.8340     0.5170 ha         1 DJS       0.168000
     36 H3          -0.7070    -1.2170    -0.5680 ha         1 DJS       0.135000
     37 H4          -4.3150    -1.9600    -0.6730 hn         1 DJS       0.500000
     38 H5          -1.6500    -3.2200    -1.1130 h1         1 DJS       0.055700
     39 H6          -1.8920    -4.5630     0.9800 hc         1 DJS       0.046367
     40 H7          -1.7510    -2.8370     1.3510 hc         1 DJS       0.046367
     41 H8          -3.3390    -3.6350     1.4270 hc         1 DJS       0.046367
     42 H9          -3.0070    -5.3290    -1.1280 hc         1 DJS       0.047700
     43 H10         -4.4720    -4.3920    -0.8700 hc         1 DJS       0.047700
     44 H11         -4.1150    -3.2310    -3.0860 hc         1 DJS       0.037367
     45 H12         -2.6030    -4.1390    -3.3120 hc         1 DJS       0.037367
     46 H13         -4.1590    -4.9940    -3.2840 hc         1 DJS       0.037367
     47 H14         -5.5720     2.3590    -1.7080 h1         1 DJS       0.104700
     48 H15         -5.9990     3.9770    -1.0390 h1         1 DJS       0.104700
     49 H16         -4.3290     3.6610    -1.6380 h1         1 DJS       0.104700
     50 H17          3.0020     0.7830     0.7900 h1         1 DJS       0.100700
     51 H18          2.9540     2.5170    -0.8920 h1         1 DJS       0.086700
     52 H19          3.5710     0.4690    -2.8130 ho         1 DJS       0.438000
     53 H20          5.4620     0.8250    -1.2900 h1         1 DJS       0.059700
     54 H21          5.5980     2.7300    -2.8980 hc         1 DJS       0.054700
     55 H22          4.9720     3.8570    -1.6900 hc         1 DJS       0.054700
     56 H23          7.7270     2.5290    -1.7710 hc         1 DJS       0.049200
     57 H24          7.2980     4.1220    -1.1480 hc         1 DJS       0.049200
     58 H25          7.3970     1.5240     0.3010 h1         1 DJS       0.055200
     59 H26          7.1620     3.1270     1.0220 h1         1 DJS       0.055200
     60 H27          4.8840     3.0330     0.5950 hn         1 DJS       0.408000
     61 H29          3.5080    -1.1960    -1.4700 hc         1 DJS       0.055700
     62 H30          4.4720    -0.9210    -0.0330 hc         1 DJS       0.055700
     63 H31          1.9560    -3.0050    -1.4840 ha         1 DJS       0.114000
     64 H32          0.6470    -4.7400    -0.2830 ha         1 DJS       0.113000
     65 H33          0.5910    -4.7660     2.2090 ha         1 DJS       0.113000
     66 H34          1.8540    -3.0480     3.5000 ha         1 DJS       0.113000
     67 H35          3.1690    -1.3070     2.3070 ha         1 DJS       0.114000
@<TRIPOS>BOND
     1     1     3 ar  
     2     1     7 ar  
     3     1    15 1   
     4     2     5 1   
     5     2    19 1   
     6     2    34 1   
     7     3     4 ar  
     8     3    35 1   
     9     4     5 1   
    10     4     9 ar  
    11     5     6 2   
    12     7     8 ar  
    13     8     9 ar  
    14     8    10 1   
    15     9    36 1   
    16    10    11 1   
    17    10    37 1   
    18    11    12 1   
    19    11    13 1   
    20    11    38 1   
    21    12    39 1   
    22    12    40 1   
    23    12    41 1   
    24    13    14 1   
    25    13    42 1   
    26    13    43 1   
    27    14    44 1   
    28    14    45 1   
    29    14    46 1   
    30    15    16 2   
    31    15    17 2   
    32    15    18 1   
    33    18    47 1   
    34    18    48 1   
    35    18    49 1   
    36    19    20 1   
    37    19    27 1   
    38    19    50 1   
    39    20    21 1   
    40    20    22 1   
    41    20    51 1   
    42    21    52 1   
    43    22    23 1   
    44    22    26 1   
    45    22    53 1   
    46    23    24 1   
    47    23    54 1   
    48    23    55 1   
    49    24    25 1   
    50    24    56 1   
    51    24    57 1   
    52    25    26 1   
    53    25    58 1   
    54    25    59 1   
    55    26    60 1   
    56    27    28 1   
    57    27    61 1   
    58    27    62 1   
    59    28    29 ar  
    60    28    33 ar  
    61    29    30 ar  
    62    29    63 1   
    63    30    31 ar  
    64    30    64 1   
    65    31    32 ar  
    66    31    65 1   
    67    32    33 ar  
    68    32    66 1   
    69    33    67 1   
@<TRIPOS>SUBSTRUCTURE
     1 DJS         1 TEMP              0 ****  ****    0 ROOT
