@<TRIPOS>MOLECULE
DJS
   67    69     1     0     0
SMALL
abcg2


@<TRIPOS>ATOM
      1 C6          -3.1770     1.5110     0.0940 ca         1 DJS       0.220900
      2 N1           1.3360     0.4280    -0.4120 ns         1 DJS      -0.489900
      3 C5          -1.8590     1.8450     0.2790 ca         1 DJS      -0.096000
      4 C4          -0.9550     0.7800     0.1920 ca         1 DJS      -0.081600
      5 C2           0.5010     1.0490     0.4300 c          1 DJS       0.609700
      6 O3           0.8510     1.7820     1.3430 o          1 DJS      -0.590100
      7 N7          -3.6560     0.3070    -0.1390 nb         1 DJS      -0.706000
      8 C8          -2.7990    -0.7130    -0.2130 ca         1 DJS       0.618900
      9 C9          -1.4090    -0.4970    -0.0450 ca         1 DJS      -0.176000
     10 N10         -3.3250    -1.9230    -0.4680 nu         1 DJS      -0.934100
     11 C11         -2.6160    -3.1890    -0.4390 c3         1 DJS       0.242500
     12 C13         -2.4260    -3.6960     0.9880 c3         1 DJS      -0.121100
     13 C14         -3.3600    -4.2050    -1.3020 c3         1 DJS      -0.087400
     14 C15         -3.5210    -3.7800    -2.7540 c3         1 DJS      -0.088100
     15 S16         -4.4440     2.7780     0.1870 sy         1 DJS       0.983100
     16 O17         -5.4630     2.3310     1.1320 o          1 DJS      -0.513000
     17 O18         -3.7830     4.0600     0.4230 o          1 DJS      -0.513000
     18 C19         -5.1400     2.7760    -1.4480 c3         1 DJS      -0.329100
     19 C20          2.7780     0.4590    -0.2800 c3         1 DJS       0.091700
     20 C22          3.3710     1.5410    -1.1980 c3         1 DJS       0.153300
     21 O24          2.9910     1.3500    -2.5410 oh         1 DJS      -0.653000
     22 C25          4.8790     1.6800    -1.0560 c5         1 DJS       0.110500
     23 C27          5.4830     2.8440    -1.8570 c5         1 DJS      -0.107400
     24 C28          6.7690     3.1880    -1.0840 c5         1 DJS      -0.113400
     25 C29          6.6500     2.3870     0.2350 c5         1 DJS       0.133800
     26 N30          5.2750     1.9040     0.3280 n7         1 DJS      -0.827400
     27 C31          3.3520    -0.9410    -0.5370 c3         1 DJS      -0.046100
     28 C32          2.6130    -2.0060     0.2240 ca         1 DJS      -0.075300
     29 C33          1.7700    -2.8940    -0.4400 ca         1 DJS      -0.108000
     30 C34          1.0510    -3.8540     0.2610 ca         1 DJS      -0.110500
     31 C35          1.1590    -3.9330     1.6430 ca         1 DJS      -0.112000
     32 C36          2.0010    -3.0550     2.3140 ca         1 DJS      -0.110500
     33 C37          2.7230    -2.1020     1.6090 ca         1 DJS      -0.108000
     34 H1           0.9460    -0.0490    -1.2100 hn         1 DJS       0.322500
     35 H2          -1.5360     2.8570     0.4700 ha         1 DJS       0.168000
     36 H3          -0.7120    -1.3250    -0.0700 ha         1 DJS       0.135000
     37 H4          -4.3340    -1.9620    -0.4600 hn         1 DJS       0.500000
     38 H5          -1.6340    -3.0340    -0.8970 h1         1 DJS       0.055700
     39 H6          -1.9070    -4.6550     0.9900 hc         1 DJS       0.046367
     40 H7          -1.8380    -3.0010     1.5880 hc         1 DJS       0.046367
     41 H8          -3.3930    -3.8360     1.4750 hc         1 DJS       0.046367
     42 H9          -2.8040    -5.1440    -1.2550 hc         1 DJS       0.047700
     43 H10         -4.3390    -4.4100    -0.8560 hc         1 DJS       0.047700
     44 H11         -4.1540    -2.8980    -2.8530 hc         1 DJS       0.037367
     45 H12         -2.5550    -3.5490    -3.2070 hc         1 DJS       0.037367
     46 H13         -3.9770    -4.5790    -3.3410 hc         1 DJS       0.037367
     47 H14         -5.5480     1.7930    -1.6650 h1         1 DJS       0.104700
     48 H15         -5.9330     3.5240    -1.4620 h1         1 DJS       0.104700
     49 H16         -4.3670     3.0370    -2.1670 h1         1 DJS       0.104700
     50 H17          3.0010     0.7390     0.7510 h1         1 DJS       0.100700
     51 H18          2.9170     2.4940    -0.8980 h1         1 DJS       0.086700
     52 H19          3.5320     0.6540    -2.9280 ho         1 DJS       0.438000
     53 H20          5.3610     0.7480    -1.3880 h1         1 DJS       0.059700
     54 H21          5.6730     2.5860    -2.8990 hc         1 DJS       0.054700
     55 H22          4.7900     3.6910    -1.8520 hc         1 DJS       0.054700
     56 H23          7.6650     2.9030    -1.6360 hc         1 DJS       0.049200
     57 H24          6.8400     4.2600    -0.8940 hc         1 DJS       0.049200
     58 H25          7.3240     1.5270     0.2110 h1         1 DJS       0.055200
     59 H26          6.9060     2.9710     1.1180 h1         1 DJS       0.055200
     60 H27          4.7010     2.6550     0.7020 hn         1 DJS       0.408000
     61 H29          3.3170    -1.1780    -1.6040 hc         1 DJS       0.055700
     62 H30          4.4050    -0.9330    -0.2490 hc         1 DJS       0.055700
     63 H31          1.6780    -2.8380    -1.5180 ha         1 DJS       0.114000
     64 H32          0.4110    -4.5420    -0.2760 ha         1 DJS       0.113000
     65 H33          0.5960    -4.6750     2.1920 ha         1 DJS       0.113000
     66 H34          2.0980    -3.1140     3.3910 ha         1 DJS       0.113000
     67 H35          3.3780    -1.4240     2.1440 ha         1 DJS       0.114000
@<TRIPOS>BOND
     1     1     3 ar  
     2     1     7 ar  
     3     1    15 1   
     4     2     5 1   
     5     2    19 1   
     6     2    34 1   
     7     3     4 ar  
     8     3    35 1   
     9     4     5 1   
    10     4     9 ar  
    11     5     6 2   
    12     7     8 ar  
    13     8     9 ar  
    14     8    10 1   
    15     9    36 1   
    16    10    11 1   
    17    10    37 1   
    18    11    12 1   
    19    11    13 1   
    20    11    38 1   
    21    12    39 1   
    22    12    40 1   
    23    12    41 1   
    24    13    14 1   
    25    13    42 1   
    26    13    43 1   
    27    14    44 1   
    28    14    45 1   
    29    14    46 1   
    30    15    16 2   
    31    15    17 2   
    32    15    18 1   
    33    18    47 1   
    34    18    48 1   
    35    18    49 1   
    36    19    20 1   
    37    19    27 1   
    38    19    50 1   
    39    20    21 1   
    40    20    22 1   
    41    20    51 1   
    42    21    52 1   
    43    22    23 1   
    44    22    26 1   
    45    22    53 1   
    46    23    24 1   
    47    23    54 1   
    48    23    55 1   
    49    24    25 1   
    50    24    56 1   
    51    24    57 1   
    52    25    26 1   
    53    25    58 1   
    54    25    59 1   
    55    26    60 1   
    56    27    28 1   
    57    27    61 1   
    58    27    62 1   
    59    28    29 ar  
    60    28    33 ar  
    61    29    30 ar  
    62    29    63 1   
    63    30    31 ar  
    64    30    64 1   
    65    31    32 ar  
    66    31    65 1   
    67    32    33 ar  
    68    32    66 1   
    69    33    67 1   
@<TRIPOS>SUBSTRUCTURE
     1 DJS         1 TEMP              0 ****  ****    0 ROOT
