@<TRIPOS>MOLECULE
DJT
   60    64     1     0     0
SMALL
abcg2


@<TRIPOS>ATOM
      1 C1          -0.1070     1.4580     1.1100 c5         1 DJT       0.029700
      2 C2           0.6450     2.4790     0.2550 c          1 DJT       0.599100
      3 CL2          3.1650    -1.4220    -2.1560 cl         1 DJT      -0.164000
      4 N3           1.5560     3.2080     0.9340 ns         1 DJT      -0.449900
      5 C4           2.6280     3.8410     0.2470 cx         1 DJT      -0.033900
      6 C5           3.6290     2.9270    -0.3470 c2         1 DJT       0.449200
      7 O6           0.4560     2.5770    -0.9420 o          1 DJT      -0.580100
      8 C7           2.3550     5.1360    -0.4700 cx         1 DJT      -0.101900
      9 C8           3.1260     5.1530     0.7990 cx         1 DJT      -0.101900
     10 N9           3.5290     1.6720    -0.2380 n2         1 DJT      -0.764100
     11 N10         -1.2600     0.9610     0.3950 n          1 DJT      -0.381800
     12 C11         -0.9850    -0.2820    -0.3150 c5         1 DJT       0.143000
     13 C12          0.5030    -0.5110    -0.0280 c5         1 DJT      -0.310700
     14 C13          0.7500     0.2030     1.2920 c5         1 DJT      -0.060400
     15 S14          0.8700    -2.2620     0.0350 sy         1 DJT       1.061500
     16 C15          2.6200    -2.3110     0.3720 ca         1 DJT      -0.250500
     17 C16          3.5840    -1.9660    -0.5740 ca         1 DJT       0.206000
     18 C17          4.9290    -2.0360    -0.2500 ca         1 DJT      -0.129000
     19 C18          5.3140    -2.4500     1.0160 ca         1 DJT      -0.049000
     20 C19          4.3600    -2.7920     1.9630 ca         1 DJT      -0.128000
     21 C20          3.0150    -2.7210     1.6400 ca         1 DJT      -0.012000
     22 O22          0.1900    -2.8340     1.1950 o          1 DJT      -0.513500
     23 O23          0.5980    -2.8470    -1.2720 o          1 DJT      -0.513500
     24 C24         -2.2910     1.7980     0.1480 c          1 DJT       0.647100
     25 O25         -2.3140     2.9220     0.6260 o          1 DJT      -0.596100
     26 C26         -4.2920     2.3050    -1.3480 cx         1 DJT      -0.098400
     27 C27         -3.3870     1.2710    -0.7410 cx         1 DJT      -0.170700
     28 C28         -3.2510     1.6560    -2.1930 cx         1 DJT      -0.098400
     29 C29         -4.9860    -1.3880     1.4100 ca         1 DJT      -0.150000
     30 C30         -5.1140    -2.4250     0.5050 ca         1 DJT       0.175000
     31 C31         -4.6960    -2.3060    -0.8040 ca         1 DJT      -0.150000
     32 C32         -4.1260    -1.1080    -1.2140 ca         1 DJT      -0.078000
     33 C33         -3.9830    -0.0390    -0.3370 ca         1 DJT      -0.067300
     34 C34         -4.4230    -0.1980     0.9780 ca         1 DJT      -0.078000
     35 H1          -0.3820     1.8890     2.0740 h1         1 DJT       0.091700
     36 HN3          1.7170     2.9710     1.9020 hn         1 DJT       0.311500
     37 H7           2.8790     5.3130    -1.4010 hc         1 DJT       0.084450
     38 H7A          1.3320     5.4860    -0.4550 hc         1 DJT       0.084450
     39 H8           2.6360     5.5130     1.6940 hc         1 DJT       0.084450
     40 H8A          4.1920     5.3370     0.7620 hc         1 DJT       0.084450
     41 H11         -1.6010    -1.0950     0.0760 h1         1 DJT       0.069200
     42 H11A        -1.1740    -0.1930    -1.3840 h1         1 DJT       0.069200
     43 H12          1.1260    -0.0890    -0.8190 h1         1 DJT       0.131700
     44 H13          1.8020     0.4230     1.4590 hc         1 DJT       0.077700
     45 H13A         0.3630    -0.3740     2.1330 hc         1 DJT       0.077700
     46 H17          5.6740    -1.7690    -0.9880 ha         1 DJT       0.131000
     47 H18          6.3660    -2.5030     1.2590 ha         1 DJT       0.122000
     48 H19          4.6590    -3.1140     2.9510 ha         1 DJT       0.126000
     49 H20          2.2710    -2.9850     2.3780 ha         1 DJT       0.149000
     50 H26         -5.3210     2.0090    -1.5040 hc         1 DJT       0.085450
     51 H26A        -4.1570     3.3360    -1.0520 hc         1 DJT       0.085450
     52 H28         -3.5620     0.9430    -2.9460 hc         1 DJT       0.085450
     53 H28A        -2.3770     2.2320    -2.4700 hc         1 DJT       0.085450
     54 H29         -5.3240    -1.5040     2.4320 ha         1 DJT       0.133500
     55 H31         -4.8010    -3.1320    -1.4940 ha         1 DJT       0.133500
     56 H32         -3.7780    -1.0270    -2.2360 ha         1 DJT       0.122000
     57 H34         -4.3320     0.6210     1.6810 ha         1 DJT       0.122000
     58 H5           4.4440     3.4270    -0.8780 h4         1 DJT      -0.031200
     59 HN9          4.3010     1.2080    -0.7080 hn         1 DJT       0.380400
     60 F35         -5.6590    -3.5820     0.9130 f          1 DJT      -0.178000
@<TRIPOS>BOND
     1     1     2 1   
     2     1    11 1   
     3     1    14 1   
     4     1    35 1   
     5     2     4 1   
     6     2     7 2   
     7     3    17 1   
     8     4     5 1   
     9     4    36 1   
    10     5     6 1   
    11     5     8 1   
    12     5     9 1   
    13     6    10 2   
    14     6    58 1   
    15     8     9 1   
    16     8    37 1   
    17     8    38 1   
    18     9    39 1   
    19     9    40 1   
    20    10    59 1   
    21    11    12 1   
    22    11    24 1   
    23    12    13 1   
    24    12    41 1   
    25    12    42 1   
    26    13    14 1   
    27    13    15 1   
    28    13    43 1   
    29    14    44 1   
    30    14    45 1   
    31    15    16 1   
    32    15    22 2   
    33    15    23 2   
    34    16    17 ar  
    35    16    21 ar  
    36    17    18 ar  
    37    18    19 ar  
    38    18    46 1   
    39    19    20 ar  
    40    19    47 1   
    41    20    21 ar  
    42    20    48 1   
    43    21    49 1   
    44    24    25 2   
    45    24    27 1   
    46    26    27 1   
    47    26    28 1   
    48    26    50 1   
    49    26    51 1   
    50    27    28 1   
    51    27    33 1   
    52    28    52 1   
    53    28    53 1   
    54    29    30 ar  
    55    29    34 ar  
    56    29    54 1   
    57    30    31 ar  
    58    30    60 1   
    59    31    32 ar  
    60    31    55 1   
    61    32    33 ar  
    62    32    56 1   
    63    33    34 ar  
    64    34    57 1   
@<TRIPOS>SUBSTRUCTURE
     1 DJT         1 TEMP              0 ****  ****    0 ROOT
