@<TRIPOS>MOLECULE
DJT
   60    64     1     0     0
SMALL
No Charge or Current Charge


@<TRIPOS>ATOM
      1 C1           0.0090     1.3990     0.7880 c5         1 DJT       0.029700
      2 C2           0.8740     2.4480     0.0190 c          1 DJT       0.599100
      3 Cl2          3.3920    -1.2670    -2.2780 cl         1 DJT      -0.164000
      4 N3           1.7680     3.0370     0.8960 ns         1 DJT      -0.449900
      5 C4           2.7540     4.0270     0.5170 cx         1 DJT      -0.033900
      6 C5           3.8060     3.5030    -0.4240 c2         1 DJT       0.449200
      7 O6           0.7980     2.7540    -1.1650 o          1 DJT      -0.580100
      8 C7           2.2760     5.4570     0.3830 cx         1 DJT      -0.101900
      9 C8           3.1260     5.0570     1.5630 cx         1 DJT      -0.101900
     10 N9           4.7430     2.7170    -0.0210 n2         1 DJT      -0.764100
     11 N10         -1.1620     0.9000     0.0080 n          1 DJT      -0.381800
     12 C11         -0.9880    -0.4760    -0.5090 c5         1 DJT       0.143000
     13 C12          0.5410    -0.6400    -0.3570 c5         1 DJT      -0.310700
     14 C13          0.8230     0.0840     0.9880 c5         1 DJT      -0.060400
     15 S14          0.9950    -2.4340    -0.2980 sy         1 DJT       1.061500
     16 C15          2.7450    -2.5090     0.1440 ca         1 DJT      -0.250500
     17 C16          3.7490    -2.0060    -0.7170 ca         1 DJT       0.206000
     18 C17          5.0990    -2.0710    -0.3300 ca         1 DJT      -0.129000
     19 C18          5.4640    -2.6290     0.9050 ca         1 DJT      -0.049000
     20 C19          4.4720    -3.1240     1.7640 ca         1 DJT      -0.128000
     21 C20          3.1190    -3.0640     1.3900 ca         1 DJT      -0.012000
     22 O22          0.2270    -3.0420     0.7970 o          1 DJT      -0.513500
     23 O23          0.8470    -2.9480    -1.6650 o          1 DJT      -0.513500
     24 C24         -2.3290     1.6770    -0.1580 c          1 DJT       0.647100
     25 O25         -2.4290     2.7880     0.3490 o          1 DJT      -0.596100
     26 C26         -4.2260     2.0070    -1.8940 cx         1 DJT      -0.098400
     27 C27         -3.4560     1.0620    -0.9860 cx         1 DJT      -0.170700
     28 C28         -3.2700     1.0110    -2.4950 cx         1 DJT      -0.098400
     29 C29         -5.6920    -0.5980     1.6250 ca         1 DJT      -0.150000
     30 C30         -5.6770    -1.9360     1.2030 ca         1 DJT       0.175000
     31 C31         -4.9460    -2.3110     0.0670 ca         1 DJT      -0.150000
     32 C32         -4.2240    -1.3430    -0.6540 ca         1 DJT      -0.078000
     33 C33         -4.2290     0.0050    -0.2360 ca         1 DJT      -0.067300
     34 C34         -4.9690     0.3710     0.9060 ca         1 DJT      -0.078000
     35 H1          -0.2980     1.8360     1.7470 h1         1 DJT       0.091700
     36 HN3          1.7500     2.7020     1.8530 hn         1 DJT       0.311500
     37 H7           2.7340     6.0790    -0.3830 hc         1 DJT       0.084450
     38 H7A          1.2230     5.6620     0.5620 hc         1 DJT       0.084450
     39 H8           2.6450     4.9980     2.5360 hc         1 DJT       0.084450
     40 H8A          4.1550     5.4080     1.5870 hc         1 DJT       0.084450
     41 H11         -1.5510    -1.1880     0.1100 h1         1 DJT       0.069200
     42 H11A        -1.3040    -0.5880    -1.5540 h1         1 DJT       0.069200
     43 H12          1.0820    -0.1910    -1.1970 h1         1 DJT       0.131700
     44 H13          1.8910     0.2520     1.1740 hc         1 DJT       0.077700
     45 H13A         0.4330    -0.4800     1.8450 hc         1 DJT       0.077700
     46 H17          5.8680    -1.6820    -0.9940 ha         1 DJT       0.131000
     47 H18          6.5110    -2.6750     1.1960 ha         1 DJT       0.122000
     48 H19          4.7500    -3.5550     2.7230 ha         1 DJT       0.126000
     49 H20          2.3690    -3.4540     2.0770 ha         1 DJT       0.149000
     50 H26         -5.2900     1.8280    -2.0280 hc         1 DJT       0.085450
     51 H26A        -3.9390     3.0560    -1.9140 hc         1 DJT       0.085450
     52 H28         -3.7010     0.1830    -3.0510 hc         1 DJT       0.085450
     53 H28A        -2.3380     1.3930    -2.9080 hc         1 DJT       0.085450
     54 H29         -6.2610    -0.3140     2.5060 ha         1 DJT       0.133500
     55 H31         -4.9390    -3.3490    -0.2540 ha         1 DJT       0.133500
     56 H32         -3.6590    -1.6470    -1.5320 ha         1 DJT       0.122000
     57 H34         -4.9850     1.4070     1.2370 ha         1 DJT       0.122000
     58 H5           3.7530     3.8070    -1.4650 h4         1 DJT      -0.031200
     59 HN9          5.3450     2.4810    -0.8230 hn         1 DJT       0.380400
     60 F35         -6.3700    -2.8660     1.8940 f          1 DJT      -0.178000
@<TRIPOS>BOND
     1     1     2 1   
     2     1    11 1   
     3     1    14 1   
     4     1    35 1   
     5     2     4 1   
     6     2     7 2   
     7     3    17 1   
     8     4     5 1   
     9     4    36 1   
    10     5     6 1   
    11     5     8 1   
    12     5     9 1   
    13     6    10 2   
    14     6    58 1   
    15     8     9 1   
    16     8    37 1   
    17     8    38 1   
    18     9    39 1   
    19     9    40 1   
    20    10    59 1   
    21    11    12 1   
    22    11    24 1   
    23    12    13 1   
    24    12    41 1   
    25    12    42 1   
    26    13    14 1   
    27    13    15 1   
    28    13    43 1   
    29    14    44 1   
    30    14    45 1   
    31    15    16 1   
    32    15    22 2   
    33    15    23 2   
    34    16    17 ar  
    35    16    21 ar  
    36    17    18 ar  
    37    18    19 ar  
    38    18    46 1   
    39    19    20 ar  
    40    19    47 1   
    41    20    21 ar  
    42    20    48 1   
    43    21    49 1   
    44    24    25 2   
    45    24    27 1   
    46    26    27 1   
    47    26    28 1   
    48    26    50 1   
    49    26    51 1   
    50    27    28 1   
    51    27    33 1   
    52    28    52 1   
    53    28    53 1   
    54    29    30 ar  
    55    29    34 ar  
    56    29    54 1   
    57    30    31 ar  
    58    30    60 1   
    59    31    32 ar  
    60    31    55 1   
    61    32    33 ar  
    62    32    56 1   
    63    33    34 ar  
    64    34    57 1   
@<TRIPOS>SUBSTRUCTURE
     1 DJT         1 TEMP              0 ****  ****    0 ROOT
