@<TRIPOS>MOLECULE
DJU
   41    43     1     0     0
SMALL
bcc


@<TRIPOS>ATOM
      1 CAD         -3.4630     0.2480    -0.5470 cc         1 DJU      -0.149400
      2 CAE         -2.1480     0.7460    -0.2730 ca         1 DJU      -0.047800
      3 CAF         -2.2800     2.1200     0.0260 ca         1 DJU      -0.081200
      4 CAG         -3.8250    -1.1440    -0.9360 c3         1 DJU       0.242000
      5 CAH         -4.3100     1.3100    -0.3960 cd         1 DJU      -0.101100
      6 CAI         -0.8820     0.1560    -0.2600 ca         1 DJU      -0.105000
      7 CAJ         -1.1760     2.9050     0.3300 ca         1 DJU      -0.117000
      8 CAK          0.2220     0.9410     0.0340 ca         1 DJU       0.103100
      9 CAL          0.0730     2.3080     0.3310 ca         1 DJU      -0.185000
     10 CAM         -4.0920    -1.9460     1.3140 c3         1 DJU       0.150100
     11 CAN         -3.6090    -3.4710    -0.4530 c3         1 DJU       0.150100
     12 CAO          2.5970     1.0590     0.2810 c3         1 DJU       0.190700
     13 CAP          3.7610     0.1210     0.1640 ca         1 DJU      -0.093300
     14 CAQ          4.1340    -0.6770     1.2430 ca         1 DJU      -0.102500
     15 CAR          4.4600     0.0080    -1.0330 ca         1 DJU      -0.102500
     16 CAS          5.1890    -1.5710     1.1270 ca         1 DJU      -0.134000
     17 CAT          5.5170    -0.8850    -1.1530 ca         1 DJU      -0.134000
     18 CAU          5.8820    -1.6760    -0.0730 ca         1 DJU      -0.119000
     19 NAB         -3.6100     2.4320    -0.0590 na         1 DJU      -0.177400
     20 NAC         -3.4130    -2.1300     0.0500 n3         1 DJU      -0.707600
     21 OAA          1.4240     0.3060     0.0200 os         1 DJU      -0.322900
     22 HAH         -4.9110    -1.1940    -1.1330 h1         1 DJU       0.032200
     23 HAG         -3.3330    -1.4020    -1.8790 h1         1 DJU       0.032200
     24 HAI         -5.3820     1.3480    -0.5100 h4         1 DJU       0.158000
     25 HAJ         -0.7610    -0.9000    -0.4680 ha         1 DJU       0.160000
     26 HAK         -1.2770     3.9590     0.5580 ha         1 DJU       0.128000
     27 HAL          0.9320     2.9220     0.5660 ha         1 DJU       0.130000
     28 HAN         -5.1850    -2.0630     1.2370 h1         1 DJU       0.029200
     29 HAM         -3.7300    -2.6760     2.0390 h1         1 DJU       0.029200
     30 HAO         -3.8900    -0.9520     1.7130 h1         1 DJU       0.029200
     31 HAQ         -3.0390    -3.6160    -1.3720 h1         1 DJU       0.029200
     32 HAP         -3.2550    -4.2000     0.2770 h1         1 DJU       0.029200
     33 HAR         -4.6630    -3.7050    -0.6720 h1         1 DJU       0.029200
     34 HAS          2.5580     1.4980     1.2840 h1         1 DJU       0.036200
     35 HAT          2.6980     1.8810    -0.4360 h1         1 DJU       0.036200
     36 HAU          3.6000    -0.5940     2.1820 ha         1 DJU       0.132000
     37 HAV          4.1790     0.6260    -1.8780 ha         1 DJU       0.132000
     38 HAW          5.4720    -2.1840     1.9720 ha         1 DJU       0.131000
     39 HAX          6.0560    -0.9600    -2.0890 ha         1 DJU       0.131000
     40 HAY          6.7080    -2.3700    -0.1620 ha         1 DJU       0.129000
     41 HAB         -4.0150     3.3360     0.1150 hn         1 DJU       0.298700
@<TRIPOS>BOND
     1     1     2 1   
     2     1     4 1   
     3     1     5 2   
     4     2     3 ar  
     5     2     6 ar  
     6     3     7 ar  
     7     3    19 1   
     8     4    20 1   
     9     4    22 1   
    10     4    23 1   
    11     5    19 1   
    12     5    24 1   
    13     6     8 ar  
    14     6    25 1   
    15     7     9 ar  
    16     7    26 1   
    17     8     9 ar  
    18     8    21 1   
    19     9    27 1   
    20    10    20 1   
    21    10    28 1   
    22    10    29 1   
    23    10    30 1   
    24    11    20 1   
    25    11    31 1   
    26    11    32 1   
    27    11    33 1   
    28    12    13 1   
    29    12    21 1   
    30    12    34 1   
    31    12    35 1   
    32    13    14 ar  
    33    13    15 ar  
    34    14    16 ar  
    35    14    36 1   
    36    15    17 ar  
    37    15    37 1   
    38    16    18 ar  
    39    16    38 1   
    40    17    18 ar  
    41    17    39 1   
    42    18    40 1   
    43    19    41 1   
@<TRIPOS>SUBSTRUCTURE
     1 DJU         1 TEMP              0 ****  ****    0 ROOT
