@<TRIPOS>MOLECULE
DJU
   41    43     1     0     0
SMALL
No Charge or Current Charge


@<TRIPOS>ATOM
      1 CAD         -3.4690     0.2560    -0.5580 cc         1 DJU      -0.149400
      2 CAE         -2.1700     0.8010    -0.2830 ca         1 DJU      -0.047800
      3 CAF         -2.3280     2.1170     0.0480 ca         1 DJU      -0.081200
      4 CAG         -3.7820    -1.1600    -0.9750 c3         1 DJU       0.242000
      5 CAH         -4.3680     1.3050    -0.3700 cd         1 DJU      -0.151100
      6 CAI         -0.9080     0.1920    -0.3120 ca         1 DJU      -0.087000
      7 CAJ         -1.2310     2.9250     0.3730 ca         1 DJU      -0.099000
      8 CAK          0.2210     0.9740     0.0080 ca         1 DJU       0.103100
      9 CAL          0.0570     2.3460     0.3510 ca         1 DJU      -0.167000
     10 CAM         -4.3160    -1.9330     1.3140 c3         1 DJU       0.150100
     11 CAN         -3.6470    -3.5500    -0.4110 c3         1 DJU       0.150100
     12 CAO          2.6710     1.0700     0.2850 c3         1 DJU       0.213900
     13 CAP          3.8420     0.1050     0.1520 ca         1 DJU      -0.093300
     14 CAQ          4.2670    -0.6540     1.2610 ca         1 DJU      -0.084500
     15 CAR          4.5080    -0.0380    -1.0810 ca         1 DJU      -0.084500
     16 CAS          5.3490    -1.5440     1.1370 ca         1 DJU      -0.116000
     17 CAT          5.5900    -0.9280    -1.2040 ca         1 DJU      -0.116000
     18 CAU          6.0110    -1.6810    -0.0940 ca         1 DJU      -0.101000
     19 NAB         -3.6640     2.4740     0.0090 na         1 DJU      -0.227700
     20 NAC         -3.5220    -2.1630     0.0860 n3         1 DJU      -0.707600
     21 OAA          1.4580     0.3630    -0.0250 os         1 DJU      -0.346100
     22 HAH         -4.8340    -1.2110    -1.2900 h1         1 DJU       0.032200
     23 HAG         -3.1730    -1.3900    -1.8600 h1         1 DJU       0.032200
     24 HAI         -5.4490     1.3010    -0.4810 h4         1 DJU       0.208000
     25 HAJ         -0.8010    -0.8570    -0.5710 ha         1 DJU       0.142000
     26 HAK         -1.3660     3.9730     0.6350 ha         1 DJU       0.110000
     27 HAL          0.9090     2.9700     0.6020 ha         1 DJU       0.112000
     28 HAN         -5.3920    -2.0070     1.1040 h1         1 DJU       0.029200
     29 HAM         -4.0650    -2.6760     2.0830 h1         1 DJU       0.029200
     30 HAO         -4.1150    -0.9390     1.7350 h1         1 DJU       0.029200
     31 HAQ         -2.9830    -3.7150    -1.2710 h1         1 DJU       0.029200
     32 HAP         -3.3700    -4.2690     0.3710 h1         1 DJU       0.029200
     33 HAR         -4.6780    -3.7620    -0.7260 h1         1 DJU       0.029200
     34 HAS          2.6370     1.4640     1.3090 h1         1 DJU       0.036200
     35 HAT          2.8130     1.9140    -0.4030 h1         1 DJU       0.036200
     36 HAU          3.7580    -0.5550     2.2170 ha         1 DJU       0.114000
     37 HAV          4.1870     0.5390    -1.9460 ha         1 DJU       0.114000
     38 HAW          5.6730    -2.1270     1.9970 ha         1 DJU       0.113000
     39 HAX          6.1010    -1.0340    -2.1580 ha         1 DJU       0.113000
     40 HAY          6.8480    -2.3700    -0.1890 ha         1 DJU       0.111000
     41 HAB         -4.0590     3.3890     0.2110 hn         1 DJU       0.349000
@<TRIPOS>BOND
     1     1     2 1   
     2     1     4 1   
     3     1     5 2   
     4     2     3 ar  
     5     2     6 ar  
     6     3     7 ar  
     7     3    19 1   
     8     4    20 1   
     9     4    22 1   
    10     4    23 1   
    11     5    19 1   
    12     5    24 1   
    13     6     8 ar  
    14     6    25 1   
    15     7     9 ar  
    16     7    26 1   
    17     8     9 ar  
    18     8    21 1   
    19     9    27 1   
    20    10    20 1   
    21    10    28 1   
    22    10    29 1   
    23    10    30 1   
    24    11    20 1   
    25    11    31 1   
    26    11    32 1   
    27    11    33 1   
    28    12    13 1   
    29    12    21 1   
    30    12    34 1   
    31    12    35 1   
    32    13    14 ar  
    33    13    15 ar  
    34    14    16 ar  
    35    14    36 1   
    36    15    17 ar  
    37    15    37 1   
    38    16    18 ar  
    39    16    38 1   
    40    17    18 ar  
    41    17    39 1   
    42    18    40 1   
    43    19    41 1   
@<TRIPOS>SUBSTRUCTURE
     1 DJU         1 TEMP              0 ****  ****    0 ROOT
