@<TRIPOS>MOLECULE
DJV
   61    63     1     0     0
SMALL
abcg2


@<TRIPOS>ATOM
      1 O1           1.9230    -2.1950    -1.1250 o          1 DJV      -0.625100
      2 C7           2.0560    -1.9230     0.0620 c          1 DJV       0.615100
      3 O2           0.5800     1.9660    -1.5210 oh         1 DJV      -0.646000
      4 C6           6.3460     1.3330     0.5620 ca         1 DJV       0.197500
      5 C1           5.2200    -0.7220    -0.8760 ca         1 DJV      -0.170000
      6 N1          -0.7490    -0.8870     0.4220 n7         1 DJV      -0.835400
      7 C5           6.4610    -0.8560    -0.2850 ca         1 DJV       0.197500
      8 C4           4.5320     0.4790    -0.7400 ca         1 DJV      -0.016300
      9 C3           7.0580     0.1530     0.4460 ca         1 DJV      -0.203000
     10 C2           5.1050     1.5200    -0.0110 ca         1 DJV      -0.170000
     11 C8          -9.2260     0.6180    -0.1380 c6         1 DJV      -0.074400
     12 C9          -8.8530    -0.8150     0.2240 c6         1 DJV      -0.072900
     13 C10         -8.1500     1.2620    -1.0060 c6         1 DJV      -0.072900
     14 C11         -7.4830    -0.8810     0.8920 c6         1 DJV      -0.069900
     15 C12         -6.7770     1.1880    -0.3460 c6         1 DJV      -0.069900
     16 C13         -1.8230     1.0720    -0.3470 c5         1 DJV      -0.106400
     17 C14         -2.0650    -0.8890     1.0560 c5         1 DJV       0.104800
     18 C15         -6.3960    -0.2450     0.0250 c6         1 DJV      -0.063700
     19 C16         -2.8180     0.3860     0.5850 c5         1 DJV       0.138300
     20 C17         -0.4740     0.5160     0.1190 c5         1 DJV       0.118500
     21 C18          2.0500    -2.9900     1.1270 c3         1 DJV      -0.178100
     22 C19          3.1690     0.6490    -1.3420 c3         1 DJV      -0.046100
     23 C21          0.6580     0.7020    -0.8970 c3         1 DJV       0.150300
     24 C22          2.0620     0.5290    -0.2790 c3         1 DJV       0.104700
     25 N2           2.1990    -0.6690     0.5200 ns         1 DJV      -0.489900
     26 O3          -4.0270     0.1440    -0.0920 os         1 DJV      -0.450000
     27 F1           7.1220    -2.0140    -0.4230 f          1 DJV      -0.174500
     28 F2           6.8960     2.3380     1.2590 f          1 DJV      -0.174500
     29 H32          0.6690     2.6490    -0.8470 ho         1 DJV       0.436000
     30 H1           4.7890    -1.5430    -1.4350 ha         1 DJV       0.139500
     31 H30         -0.8100    -1.3940    -0.4540 hn         1 DJV       0.418000
     32 H3           8.0320     0.0280     0.8990 ha         1 DJV       0.149000
     33 H2           4.5900     2.4660     0.1050 ha         1 DJV       0.139500
     34 H4          -9.3460     1.2020     0.7810 hc         1 DJV       0.038200
     35 H7          -9.6090    -1.2510     0.8810 hc         1 DJV       0.039200
     36 H6          -8.8420    -1.4290    -0.6830 hc         1 DJV       0.039200
     37 H9          -8.1140     0.7530    -1.9760 hc         1 DJV       0.039200
     38 H8          -8.4060     2.3040    -1.2160 hc         1 DJV       0.039200
     39 H11         -7.5280    -0.3600     1.8560 hc         1 DJV       0.040450
     40 H10         -7.2220    -1.9200     1.1130 hc         1 DJV       0.040450
     41 H13         -6.0220     1.6230    -1.0050 hc         1 DJV       0.040450
     42 H12         -6.7800     1.7970     0.5660 hc         1 DJV       0.040450
     43 H14         -2.0100     0.7530    -1.3780 hc         1 DJV       0.069700
     44 H15         -1.8980     2.1590    -0.3100 hc         1 DJV       0.069700
     45 H17         -2.6040    -1.8040     0.8040 h1         1 DJV       0.057700
     46 H16         -1.9480    -0.8730     2.1430 h1         1 DJV       0.057700
     47 H18         -6.3200    -0.8360    -0.8980 hc         1 DJV       0.060700
     48 H19         -3.0180     1.0270     1.4560 h1         1 DJV       0.036700
     49 H20         -0.1900     1.0140     1.0590 h1         1 DJV       0.054700
     50 H22          2.5250    -3.8960     0.7570 hc         1 DJV       0.061033
     51 H21          2.5430    -2.6810     2.0470 hc         1 DJV       0.061033
     52 H23          1.0110    -3.2260     1.3660 hc         1 DJV       0.061033
     53 H25          3.0940     1.6330    -1.8060 hc         1 DJV       0.076200
     54 H24          3.0120    -0.0920    -2.1240 hc         1 DJV       0.076200
     55 H28          0.5240    -0.0270    -1.7020 h1         1 DJV       0.102700
     56 H29          2.1990     1.3500     0.4320 h1         1 DJV       0.038700
     57 H31          2.2260    -0.5430     1.5170 hn         1 DJV       0.315500
     58 C20         -5.0620    -0.3130     0.7480 c3         1 DJV       0.163600
     59 H5         -10.1920     0.6400    -0.6490 hc         1 DJV       0.038200
     60 H26         -5.1120     0.3040     1.6590 h1         1 DJV       0.021200
     61 H27         -4.8700    -1.3450     1.0760 h1         1 DJV       0.021200
@<TRIPOS>BOND
     1     1     2 2   
     2     2    21 1   
     3     2    25 1   
     4     3    23 1   
     5     3    29 1   
     6     4     9 ar  
     7     4    10 ar  
     8     4    28 1   
     9     5     7 ar  
    10     5     8 ar  
    11     5    30 1   
    12     6    17 1   
    13     6    20 1   
    14     6    31 1   
    15     7     9 ar  
    16     7    27 1   
    17     8    10 ar  
    18     8    22 1   
    19     9    32 1   
    20    10    33 1   
    21    11    12 1   
    22    11    13 1   
    23    11    34 1   
    24    11    59 1   
    25    12    14 1   
    26    12    35 1   
    27    12    36 1   
    28    13    15 1   
    29    13    37 1   
    30    13    38 1   
    31    14    18 1   
    32    14    39 1   
    33    14    40 1   
    34    15    18 1   
    35    15    41 1   
    36    15    42 1   
    37    16    19 1   
    38    16    20 1   
    39    16    43 1   
    40    16    44 1   
    41    17    19 1   
    42    17    45 1   
    43    17    46 1   
    44    18    47 1   
    45    18    58 1   
    46    19    26 1   
    47    19    48 1   
    48    20    23 1   
    49    20    49 1   
    50    21    50 1   
    51    21    51 1   
    52    21    52 1   
    53    22    24 1   
    54    22    53 1   
    55    22    54 1   
    56    23    24 1   
    57    23    55 1   
    58    24    25 1   
    59    24    56 1   
    60    25    57 1   
    61    26    58 1   
    62    58    60 1   
    63    58    61 1   
@<TRIPOS>SUBSTRUCTURE
     1 DJV         1 TEMP              0 ****  ****    0 ROOT
