@<TRIPOS>MOLECULE
DJV
   61    63     1     0     0
SMALL
No Charge or Current Charge


@<TRIPOS>ATOM
      1 O1           1.7720    -1.9910    -1.4240 o          1 DJV      -0.625100
      2 C7           1.9910    -1.9010    -0.2240 c          1 DJV       0.615100
      3 O2           0.7160     2.3140    -1.3390 oh         1 DJV      -0.646000
      4 C6           6.5140     0.7780     0.8110 ca         1 DJV       0.197500
      5 C1           5.2440    -0.7650    -1.1510 ca         1 DJV      -0.170000
      6 N1          -0.8530    -0.4960     0.6620 n7         1 DJV      -0.835400
      7 C5           6.4910    -1.1570    -0.6410 ca         1 DJV       0.197500
      8 C4           4.6200     0.4060    -0.6780 ca         1 DJV      -0.016300
      9 C3           7.1310    -0.3880     0.3410 ca         1 DJV      -0.203000
     10 C2           5.2660     1.1770     0.3080 ca         1 DJV      -0.170000
     11 C8          -9.3020     0.0550    -0.5450 c6         1 DJV      -0.074400
     12 C9          -8.8000    -1.1550     0.2810 c6         1 DJV      -0.072900
     13 C10         -8.1750     0.6220    -1.4420 c6         1 DJV      -0.072900
     14 C11         -7.5510    -0.7830     1.1170 c6         1 DJV      -0.069900
     15 C12         -6.9240     0.9940    -0.6070 c6         1 DJV      -0.069900
     16 C13         -1.8700     1.3660    -0.3020 c5         1 DJV      -0.106400
     17 C14         -2.1090    -0.3310     1.4410 c5         1 DJV       0.104800
     18 C15         -6.4100    -0.2190     0.2240 c6         1 DJV      -0.063700
     19 C16         -2.8350     0.9180     0.8280 c5         1 DJV       0.138300
     20 C17         -0.5000     0.8850     0.2490 c5         1 DJV       0.118500
     21 C18          2.0920    -3.1240     0.6760 c3         1 DJV      -0.178100
     22 C19          3.2580     0.8330    -1.2180 c3         1 DJV      -0.046100
     23 C21          0.6880     0.9840    -0.7770 c3         1 DJV       0.150300
     24 C22          2.1040     0.6370    -0.1930 c3         1 DJV       0.104700
     25 N2           2.1720    -0.7000     0.4240 ns         1 DJV      -0.489900
     26 O3          -4.0790     0.5160     0.2050 os         1 DJV      -0.450000
     27 F1           7.0790    -2.2830    -1.0980 f          1 DJV      -0.174500
     28 F2           7.1250     1.5230     1.7580 f          1 DJV      -0.174500
     29 H32          0.8170     2.9460    -0.5950 ho         1 DJV       0.436000
     30 H1           4.7620    -1.3770    -1.9100 ha         1 DJV       0.139500
     31 H30         -1.0730    -1.0300    -0.1880 hn         1 DJV       0.418000
     32 H3           8.0960    -0.6940     0.7330 ha         1 DJV       0.149000
     33 H2           4.8030     2.0840     0.6870 ha         1 DJV       0.139500
     34 H4          -9.6670     0.8400     0.1320 hc         1 DJV       0.038200
     35 H7          -9.6010    -1.5100     0.9440 hc         1 DJV       0.039200
     36 H6          -8.5600    -1.9890    -0.3930 hc         1 DJV       0.039200
     37 H9          -7.9030    -0.1190    -2.2070 hc         1 DJV       0.039200
     38 H8          -8.5390     1.5070    -1.9820 hc         1 DJV       0.039200
     39 H11         -7.8280    -0.0410     1.8800 hc         1 DJV       0.040450
     40 H10         -7.1980    -1.6700     1.6600 hc         1 DJV       0.040450
     41 H13         -6.1350     1.3550    -1.2810 hc         1 DJV       0.040450
     42 H12         -7.1660     1.8300     0.0640 hc         1 DJV       0.040450
     43 H14         -2.1080     0.8880    -1.2600 hc         1 DJV       0.069700
     44 H15         -1.9050     2.4490    -0.4580 hc         1 DJV       0.069700
     45 H17         -2.7180    -1.2450     1.4000 h1         1 DJV       0.057700
     46 H16         -1.8770    -0.1380     2.4980 h1         1 DJV       0.057700
     47 H18         -6.0920    -1.0110    -0.4690 hc         1 DJV       0.060700
     48 H19         -3.0120     1.7070     1.5720 h1         1 DJV       0.036700
     49 H20         -0.2230     1.4770     1.1350 h1         1 DJV       0.054700
     50 H22          1.9510    -4.0640     0.1310 hc         1 DJV       0.061033
     51 H21          3.0540    -3.1010     1.2010 hc         1 DJV       0.061033
     52 H23          1.3750    -3.0210     1.4980 hc         1 DJV       0.061033
     53 H25          3.3070     1.8870    -1.5140 hc         1 DJV       0.076200
     54 H24          3.0240     0.2800    -2.1360 hc         1 DJV       0.076200
     55 H28          0.4780     0.2660    -1.5810 h1         1 DJV       0.102700
     56 H29          2.2890     1.3450     0.6260 h1         1 DJV       0.038700
     57 H31          2.3170    -0.7530     1.4240 hn         1 DJV       0.315500
     58 C20         -5.1610     0.1400     1.0770 c3         1 DJV       0.163600
     59 H5         -10.1580    -0.2460    -1.1650 hc         1 DJV       0.038200
     60 H26         -5.4140     0.9640     1.7580 h1         1 DJV       0.021200
     61 H27         -4.8850    -0.7330     1.6830 h1         1 DJV       0.021200
@<TRIPOS>BOND
     1     1     2 2   
     2     2    21 1   
     3     2    25 1   
     4     3    23 1   
     5     3    29 1   
     6     4     9 ar  
     7     4    10 ar  
     8     4    28 1   
     9     5     7 ar  
    10     5     8 ar  
    11     5    30 1   
    12     6    17 1   
    13     6    20 1   
    14     6    31 1   
    15     7     9 ar  
    16     7    27 1   
    17     8    10 ar  
    18     8    22 1   
    19     9    32 1   
    20    10    33 1   
    21    11    12 1   
    22    11    13 1   
    23    11    34 1   
    24    11    59 1   
    25    12    14 1   
    26    12    35 1   
    27    12    36 1   
    28    13    15 1   
    29    13    37 1   
    30    13    38 1   
    31    14    18 1   
    32    14    39 1   
    33    14    40 1   
    34    15    18 1   
    35    15    41 1   
    36    15    42 1   
    37    16    19 1   
    38    16    20 1   
    39    16    43 1   
    40    16    44 1   
    41    17    19 1   
    42    17    45 1   
    43    17    46 1   
    44    18    47 1   
    45    18    58 1   
    46    19    26 1   
    47    19    48 1   
    48    20    23 1   
    49    20    49 1   
    50    21    50 1   
    51    21    51 1   
    52    21    52 1   
    53    22    24 1   
    54    22    53 1   
    55    22    54 1   
    56    23    24 1   
    57    23    55 1   
    58    24    25 1   
    59    24    56 1   
    60    25    57 1   
    61    26    58 1   
    62    58    60 1   
    63    58    61 1   
@<TRIPOS>SUBSTRUCTURE
     1 DJV         1 TEMP              0 ****  ****    0 ROOT
