@<TRIPOS>MOLECULE
DJW
   67    72     1     0     0
SMALL
bcc


@<TRIPOS>ATOM
      1 C4          -2.2030     3.7080    -1.0980 ca         1 DJW      -0.238300
      2 C5          -2.6540     2.7340    -0.2230 ca         1 DJW      -0.079000
      3 C6          -1.6920     1.9520     0.3940 ca         1 DJW      -0.089700
      4 C17         -6.0530    -2.5300     2.0630 c5         1 DJW      -0.098400
      5 C20         -0.5880     0.3930     1.6260 c          1 DJW       0.717500
      6 C22          0.4840     1.2070     0.8940 c5         1 DJW      -0.169300
      7 C26          2.4090     1.0310     2.5530 c6         1 DJW       0.090500
      8 C1           0.9580     4.9800    -2.3710 c3         1 DJW       0.135700
      9 C3          -0.8270     3.8510    -1.3100 ca         1 DJW       0.628600
     10 N7          -1.8110     0.9230     1.3270 n          1 DJW      -0.351000
     11 C9          -3.5250    -0.6340     0.5980 c          1 DJW       0.649100
     12 N10         -4.7780    -1.1170     0.7330 n          1 DJW      -0.480800
     13 C11         -5.3140    -2.0880    -0.2070 c5         1 DJW       0.035700
     14 C12         -5.9840    -1.3830    -1.3730 c3         1 DJW       0.653900
     15 F13         -5.1350    -0.6430    -2.0930 f          1 DJW      -0.233633
     16 F14         -6.5390    -2.2720    -2.2090 f          1 DJW      -0.233633
     17 F15         -6.9580    -0.5550    -0.9670 f          1 DJW      -0.233633
     18 C16         -6.3190    -2.9260     0.6120 c5         1 DJW      -0.085400
     19 C18         -5.5830    -1.0880     1.9520 c5         1 DJW       0.097000
     20 O19         -2.8000    -0.9050    -0.3400 o          1 DJW      -0.565100
     21 O21         -0.4160    -0.5630     2.3540 o          1 DJW      -0.601500
     22 C23         -0.3590     2.1710     0.1130 ca         1 DJW       0.407600
     23 N24          0.0820     3.0970    -0.7170 nb         1 DJW      -0.710000
     24 C25          1.4000     1.9530     1.8810 c6         1 DJW      -0.080400
     25 N27          3.1780     0.2930     1.5640 n          1 DJW      -0.463800
     26 O29          4.9360     1.7120     1.7210 o          1 DJW      -0.597100
     27 C30          5.2120    -0.1230     0.2800 ca         1 DJW      -0.181600
     28 C31          5.8860     0.5370    -0.7750 ca         1 DJW      -0.052000
     29 C32          6.6980    -0.1360    -1.6550 ca         1 DJW      -0.157000
     30 C33          6.8600    -1.5110    -1.4420 ca         1 DJW      -0.026200
     31 N34          7.5780    -2.4510    -2.0950 na         1 DJW      -0.012100
     32 N35          7.4530    -3.6610    -1.5430 nc         1 DJW      -0.515100
     33 C36          6.6510    -3.5300    -0.5180 cd         1 DJW       0.360800
     34 C37          6.2220    -2.1810    -0.3840 ca         1 DJW      -0.244900
     35 C38          5.3810    -1.4770     0.4840 ca         1 DJW      -0.019000
     36 C39          2.3440    -0.5420     0.7130 c6         1 DJW       0.090500
     37 C40          1.3250     0.3120    -0.0330 c6         1 DJW      -0.080400
     38 H1          -2.9010     4.3530    -1.6120 ha         1 DJW       0.159000
     39 H2          -3.7140     2.6080    -0.0440 ha         1 DJW       0.148000
     40 H3          -2.9050    -0.2300     2.6310 h1         1 DJW       0.082700
     41 H4          -3.7970     1.0870     1.8970 h1         1 DJW       0.082700
     42 H6          -5.2560    -3.1400     2.4900 hc         1 DJW       0.062200
     43 H7           3.0810     1.6110     3.1800 h1         1 DJW       0.069450
     44 H8           1.9050     0.3090     3.1980 h1         1 DJW       0.069450
     45 H9           1.0520     5.7880    -3.0910 h1         1 DJW       0.047033
     46 H10          1.4740     5.2570    -1.4500 h1         1 DJW       0.047033
     47 H11          1.4270     4.0820    -2.7740 h1         1 DJW       0.047033
     48 H12         -4.5090    -2.7080    -0.6110 h1         1 DJW       0.107700
     49 H13         -6.1770    -3.9890     0.4320 hc         1 DJW       0.068200
     50 H14         -7.3510    -2.6890     0.3480 hc         1 DJW       0.068200
     51 H15         -6.4220    -0.3970     1.8430 h1         1 DJW       0.058700
     52 H16         -5.0020    -0.7720     2.8140 h1         1 DJW       0.058700
     53 H17          1.9380     2.7220     1.3200 hc         1 DJW       0.066950
     54 H18          0.8060     2.4690     2.6390 hc         1 DJW       0.066950
     55 H19          5.7440     1.6020    -0.9010 ha         1 DJW       0.146000
     56 H20          7.1920     0.3770    -2.4680 ha         1 DJW       0.142000
     57 H21          8.1570    -2.3330    -2.9100 hn         1 DJW       0.326700
     58 H22          6.3950    -4.3800     0.0960 h4         1 DJW       0.051800
     59 H23          4.8850    -1.9860     1.3020 ha         1 DJW       0.146000
     60 H24          2.9520    -1.0740    -0.0120 h1         1 DJW       0.069450
     61 H25          1.8500    -1.2910     1.3310 h1         1 DJW       0.069450
     62 H26          0.6750    -0.3300    -0.6320 hc         1 DJW       0.066950
     63 H27          1.8560     0.9670    -0.7300 hc         1 DJW       0.066950
     64 C8          -3.0500     0.3160     1.6970 c3         1 DJW       0.028000
     65 C28          4.4220     0.7120     1.2360 c          1 DJW       0.682700
     66 O2          -0.4350     4.8050    -2.1630 os         1 DJW      -0.436100
     67 H5          -6.9340    -2.6330     2.6930 hc         1 DJW       0.062200
@<TRIPOS>BOND
     1     1     2 ar  
     2     1     9 ar  
     3     1    38 1   
     4     2     3 ar  
     5     2    39 1   
     6     3    10 1   
     7     3    22 ar  
     8     4    18 1   
     9     4    19 1   
    10     4    42 1   
    11     4    67 1   
    12     5     6 1   
    13     5    10 1   
    14     5    21 2   
    15     6    22 1   
    16     6    24 1   
    17     6    37 1   
    18     7    24 1   
    19     7    25 1   
    20     7    43 1   
    21     7    44 1   
    22     8    45 1   
    23     8    46 1   
    24     8    47 1   
    25     8    66 1   
    26     9    23 ar  
    27     9    66 1   
    28    10    64 1   
    29    11    12 1   
    30    11    20 2   
    31    11    64 1   
    32    12    13 1   
    33    12    19 1   
    34    13    14 1   
    35    13    18 1   
    36    13    48 1   
    37    14    15 1   
    38    14    16 1   
    39    14    17 1   
    40    18    49 1   
    41    18    50 1   
    42    19    51 1   
    43    19    52 1   
    44    22    23 ar  
    45    24    53 1   
    46    24    54 1   
    47    25    36 1   
    48    25    65 1   
    49    26    65 2   
    50    27    28 ar  
    51    27    35 ar  
    52    27    65 1   
    53    28    29 ar  
    54    28    55 1   
    55    29    30 ar  
    56    29    56 1   
    57    30    31 1   
    58    30    34 ar  
    59    31    32 1   
    60    31    57 1   
    61    32    33 2   
    62    33    34 1   
    63    33    58 1   
    64    34    35 ar  
    65    35    59 1   
    66    36    37 1   
    67    36    60 1   
    68    36    61 1   
    69    37    62 1   
    70    37    63 1   
    71    40    64 1   
    72    41    64 1   
@<TRIPOS>SUBSTRUCTURE
     1 DJW         1 TEMP              0 ****  ****    0 ROOT
