@<TRIPOS>MOLECULE
DJW
   67    72     1     0     0
SMALL
No Charge or Current Charge


@<TRIPOS>ATOM
      1 C4          -2.4450     4.0080    -0.8890 ca         1 DJW      -0.155000
      2 C5          -2.8220     2.9240    -0.0750 ca         1 DJW      -0.061000
      3 C6          -1.7860     2.0760     0.3370 ca         1 DJW      -0.117000
      4 C17         -5.9940    -2.8860     2.1090 c5         1 DJW      -0.098400
      5 C20         -0.5410     0.4860     1.5410 c          1 DJW       0.575000
      6 C22          0.4720     1.4020     0.7610 c5         1 DJW      -0.169300
      7 C26          2.4900     1.2330     2.3590 c6         1 DJW       0.090500
      8 C1           0.6000     5.5720    -2.3580 c3         1 DJW       0.158900
      9 C3          -1.0830     4.2120    -1.1990 ca         1 DJW       0.563300
     10 N7          -1.8160     1.0060     1.2530 n          1 DJW      -0.191400
     11 C9          -3.5120    -0.7860     0.6400 c          1 DJW       0.582100
     12 N10         -4.7980    -1.3480     0.8180 n          1 DJW      -0.413800
     13 C11         -5.3890    -2.3140    -0.1620 c5         1 DJW       0.035700
     14 C12         -5.9010    -1.6770    -1.4940 c3         1 DJW       0.290000
     15 F13         -4.8860    -1.2690    -2.2890 f          1 DJW      -0.112333
     16 F14         -6.6300    -2.5610    -2.2140 f          1 DJW      -0.112333
     17 F15         -6.6870    -0.5990    -1.2680 f          1 DJW      -0.112333
     18 C16         -6.5610    -2.9240     0.6730 c5         1 DJW      -0.085400
     19 C18         -5.4280    -1.4500     2.1560 c5         1 DJW       0.097000
     20 O19         -2.8070    -1.1200    -0.3040 o          1 DJW      -0.565100
     21 O21         -0.3200    -0.4930     2.2410 o          1 DJW      -0.526000
     22 C23         -0.4660     2.3720     0.0480 ca         1 DJW       0.342300
     23 N24         -0.0950     3.4160    -0.7230 nb         1 DJW      -0.710000
     24 C25          1.4490     2.1720     1.7040 c6         1 DJW      -0.080400
     25 N27          3.2650     0.4700     1.3430 n          1 DJW      -0.396800
     26 O29          5.0780     1.8810     1.4190 o          1 DJW      -0.597100
     27 C30          5.4450    -0.1490     0.2390 ca         1 DJW      -0.181600
     28 C31          6.4840     0.3420    -0.6000 ca         1 DJW      -0.034000
     29 C32          7.3160    -0.5440    -1.3180 ca         1 DJW      -0.139000
     30 C33          7.0930    -1.9160    -1.1630 ca         1 DJW      -0.026200
     31 N34          7.7540    -2.9920    -1.7250 na         1 DJW      -0.062400
     32 N35          7.2000    -4.2010    -1.2600 nc         1 DJW      -0.515100
     33 C36          6.2120    -3.8300    -0.4260 cd         1 DJW       0.360800
     34 C37          6.1220    -2.3920    -0.3480 ca         1 DJW      -0.244900
     35 C38          5.2740    -1.5510     0.3850 ca         1 DJW      -0.001000
     36 C39          2.3960    -0.2960     0.4030 c6         1 DJW       0.090500
     37 C40          1.3390     0.6150    -0.2710 c6         1 DJW      -0.080400
     38 H1          -3.1910     4.6960    -1.2720 ha         1 DJW       0.141000
     39 H2          -3.8600     2.7560     0.2040 ha         1 DJW       0.130000
     40 H3          -2.9070    -0.1810     2.6140 h1         1 DJW       0.082700
     41 H4          -3.8770     1.0200     1.7500 h1         1 DJW       0.082700
     42 H6          -5.2040    -3.6340     2.2490 hc         1 DJW       0.062200
     43 H7           3.1650     1.8220     2.9950 h1         1 DJW       0.069450
     44 H8           1.9820     0.5210     3.0240 h1         1 DJW       0.069450
     45 H9           0.6480     6.4640    -2.9960 h1         1 DJW       0.047033
     46 H10          1.2110     5.7600    -1.4660 h1         1 DJW       0.047033
     47 H11          1.0400     4.7330    -2.9130 h1         1 DJW       0.047033
     48 H12         -4.6540    -3.0920    -0.4150 h1         1 DJW       0.107700
     49 H13         -6.8200    -3.9380     0.3490 hc         1 DJW       0.068200
     50 H14         -7.4740    -2.3200     0.6030 hc         1 DJW       0.068200
     51 H15         -6.2240    -0.7010     2.2680 h1         1 DJW       0.058700
     52 H16         -4.7200    -1.3340     2.9870 h1         1 DJW       0.058700
     53 H17          1.9830     2.9480     1.1370 hc         1 DJW       0.066950
     54 H18          0.8830     2.6990     2.4850 hc         1 DJW       0.066950
     55 H19          6.6390     1.4150    -0.7020 ha         1 DJW       0.128000
     56 H20          8.1060    -0.1700    -1.9660 ha         1 DJW       0.124000
     57 H21          8.5330    -2.9590    -2.3810 hn         1 DJW       0.377000
     58 H22          5.6230    -4.5910     0.0710 h4         1 DJW       0.051800
     59 H23          4.5250    -1.9700     1.0540 ha         1 DJW       0.128000
     60 H24          2.9900    -0.7630    -0.3930 h1         1 DJW       0.069450
     61 H25          1.8990    -1.1070     0.9530 h1         1 DJW       0.069450
     62 H26          0.6910     0.0090    -0.9210 hc         1 DJW       0.066950
     63 H27          1.8580     1.3230    -0.9330 hc         1 DJW       0.066950
     64 C8          -3.0600     0.2980     1.6400 c3         1 DJW       0.028000
     65 C28          4.5930     0.8320     1.0120 c          1 DJW       0.615700
     66 O2          -0.7660     5.2890    -1.9950 os         1 DJW      -0.459300
     67 H5          -6.7580    -3.0620     2.8740 hc         1 DJW       0.062200
@<TRIPOS>BOND
     1     1     2 ar  
     2     1     9 ar  
     3     1    38 1   
     4     2     3 ar  
     5     2    39 1   
     6     3    10 1   
     7     3    22 ar  
     8     4    18 1   
     9     4    19 1   
    10     4    42 1   
    11     4    67 1   
    12     5     6 1   
    13     5    10 1   
    14     5    21 2   
    15     6    22 1   
    16     6    24 1   
    17     6    37 1   
    18     7    24 1   
    19     7    25 1   
    20     7    43 1   
    21     7    44 1   
    22     8    45 1   
    23     8    46 1   
    24     8    47 1   
    25     8    66 1   
    26     9    23 ar  
    27     9    66 1   
    28    10    64 1   
    29    11    12 1   
    30    11    20 2   
    31    11    64 1   
    32    12    13 1   
    33    12    19 1   
    34    13    14 1   
    35    13    18 1   
    36    13    48 1   
    37    14    15 1   
    38    14    16 1   
    39    14    17 1   
    40    18    49 1   
    41    18    50 1   
    42    19    51 1   
    43    19    52 1   
    44    22    23 ar  
    45    24    53 1   
    46    24    54 1   
    47    25    36 1   
    48    25    65 1   
    49    26    65 2   
    50    27    28 ar  
    51    27    35 ar  
    52    27    65 1   
    53    28    29 ar  
    54    28    55 1   
    55    29    30 ar  
    56    29    56 1   
    57    30    31 1   
    58    30    34 ar  
    59    31    32 1   
    60    31    57 1   
    61    32    33 2   
    62    33    34 1   
    63    33    58 1   
    64    34    35 ar  
    65    35    59 1   
    66    36    37 1   
    67    36    60 1   
    68    36    61 1   
    69    37    62 1   
    70    37    63 1   
    71    40    64 1   
    72    41    64 1   
@<TRIPOS>SUBSTRUCTURE
     1 DJW         1 TEMP              0 ****  ****    0 ROOT
