@<TRIPOS>MOLECULE
DJX
   50    53     1     0     0
SMALL
No Charge or Current Charge


@<TRIPOS>ATOM
      1 C10          5.1900     1.1160    -0.7670 c6         1 DJX       0.221800
      2 N12          6.8840    -0.7630    -0.4280 n3         1 DJX      -0.715600
      3 C13          5.8370    -1.5130     0.3360 c6         1 DJX       0.149800
      4 C15          8.2740    -1.1150    -0.0470 c3         1 DJX       0.167800
      5 C17         -2.0800    -0.0030    -0.1320 cc         1 DJX       0.724300
      6 C20         -3.9720     1.1360     0.0180 cd         1 DJX       0.334900
      7 C22         -5.9150    -0.4060    -0.1920 ca         1 DJX       0.053000
      8 C24         -8.2310     0.1610     0.2790 ca         1 DJX       0.339400
      9 C26         -7.7860    -1.8190    -0.8280 ca         1 DJX       0.339400
     10 C1           0.3960     0.5880    -0.0480 ca         1 DJX       0.401900
     11 C2           1.6530    -0.0100    -0.1430 ca         1 DJX      -0.364000
     12 C3           2.7820     0.8170    -0.0290 ca         1 DJX       0.421900
     13 C5           1.3930     2.6260     0.2430 ca         1 DJX       0.209300
     14 C7           1.2520     4.1210     0.4640 c3         1 DJX      -0.135400
     15 C11          6.6230     0.7030    -0.3000 c6         1 DJX       0.149800
     16 C14          4.3790    -1.1590    -0.1030 c6         1 DJX       0.221800
     17 C16          8.6700    -2.5750    -0.3450 c3         1 DJX      -0.090100
     18 C19         -4.4750    -0.1380    -0.1390 cc         1 DJX      -0.205000
     19 C23         -6.8650     0.4780     0.3580 ca         1 DJX      -0.163000
     20 C27         -6.4030    -1.5800    -0.7920 ca         1 DJX      -0.163000
     21 N4           2.6470     2.1420     0.1640 nb         1 DJX      -0.287000
     22 N6           0.2580     1.9090     0.1480 nb         1 DJX      -0.228000
     23 N9           4.1020     0.3160    -0.1060 nh         1 DJX      -0.776300
     24 N21         -2.5850     1.2030     0.0260 nd         1 DJX      -0.655000
     25 N25         -8.6950    -0.9670    -0.3040 nb         1 DJX      -0.665000
     26 S18         -3.2120    -1.3190    -0.3130 ss         1 DJX      -0.108400
     27 H1           5.0770     2.1910    -0.5650 h1         1 DJX       0.058450
     28 H2           5.9670    -2.5970     0.2130 h1         1 DJX       0.041450
     29 H3           8.9710    -0.4700    -0.5980 h1         1 DJX       0.031200
     30 H4           8.4340    -0.9190     1.0220 h1         1 DJX       0.031200
     31 H5          -4.5450     2.0480     0.1240 h4         1 DJX       0.044100
     32 H6          -8.9800     0.8310     0.7010 h4         1 DJX       0.019100
     33 H7          -8.1800    -2.7220    -1.2930 h4         1 DJX       0.019100
     34 H8           1.7410    -1.0760    -0.3130 ha         1 DJX       0.125000
     35 H9           1.5050     4.3870     1.4970 hc         1 DJX       0.060033
     36 H10          1.9190     4.6830    -0.2010 hc         1 DJX       0.060033
     37 H11          0.2290     4.4660     0.2720 hc         1 DJX       0.060033
     38 H12          7.3550     1.2720    -0.8910 h1         1 DJX       0.041450
     39 H13          4.2050    -1.5700    -1.1080 h1         1 DJX       0.058450
     40 H14          8.1170    -3.2770     0.2900 hc         1 DJX       0.038033
     41 H15          8.4750    -2.8220    -1.3960 hc         1 DJX       0.038033
     42 H16          9.7390    -2.7210    -0.1520 hc         1 DJX       0.038033
     43 H17         -6.5680     1.3960     0.8540 ha         1 DJX       0.123500
     44 H18         -5.7290    -2.3060    -1.2360 ha         1 DJX       0.123500
     45 H19         -0.5180    -1.1950    -0.3000 hn         1 DJX       0.508000
     46 H20          5.1290     0.9880    -1.8570 h1         1 DJX       0.058450
     47 H21          5.9350    -1.3010     1.4110 h1         1 DJX       0.041450
     48 H22          6.7490     1.0160     0.7470 h1         1 DJX       0.041450
     49 H23          3.6970    -1.6770     0.5860 h1         1 DJX       0.058450
     50 N8          -0.7300    -0.2140    -0.1610 nu         1 DJX      -0.897800
@<TRIPOS>BOND
     1     1    15 1   
     2     1    23 1   
     3     1    27 1   
     4     1    46 1   
     5     2     3 1   
     6     2     4 1   
     7     2    15 1   
     8     3    16 1   
     9     3    28 1   
    10     3    47 1   
    11     4    17 1   
    12     4    29 1   
    13     4    30 1   
    14     5    24 2   
    15     5    26 1   
    16     5    50 1   
    17     6    18 2   
    18     6    24 1   
    19     6    31 1   
    20     7    18 1   
    21     7    19 ar  
    22     7    20 ar  
    23     8    19 ar  
    24     8    25 ar  
    25     8    32 1   
    26     9    20 ar  
    27     9    25 ar  
    28     9    33 1   
    29    10    11 ar  
    30    10    22 ar  
    31    10    50 1   
    32    11    12 ar  
    33    11    34 1   
    34    12    21 ar  
    35    12    23 1   
    36    13    14 1   
    37    13    21 ar  
    38    13    22 ar  
    39    14    35 1   
    40    14    36 1   
    41    14    37 1   
    42    15    38 1   
    43    15    48 1   
    44    16    23 1   
    45    16    39 1   
    46    16    49 1   
    47    17    40 1   
    48    17    41 1   
    49    17    42 1   
    50    18    26 1   
    51    19    43 1   
    52    20    44 1   
    53    45    50 1   
@<TRIPOS>SUBSTRUCTURE
     1 DJX         1 TEMP              0 ****  ****    0 ROOT
