@<TRIPOS>MOLECULE
DJX
   50    53     1     0     0
SMALL
abcg2


@<TRIPOS>ATOM
      1 C10          5.2190     1.1990    -0.5460 c6         1 DJX       0.221800
      2 N12          6.7770    -0.6680    -0.2960 n3         1 DJX      -0.715600
      3 C13          5.6590    -1.5550    -0.0530 c6         1 DJX       0.149800
      4 C15          8.0110    -1.1460     0.3040 c3         1 DJX       0.167800
      5 C17         -1.9720     0.0810    -0.2220 cc         1 DJX       0.724300
      6 C20         -3.8350     1.2200    -0.1990 cd         1 DJX       0.334900
      7 C22         -5.8160    -0.3690    -0.0440 ca         1 DJX       0.053000
      8 C24         -8.1300     0.2250     0.1620 ca         1 DJX       0.339400
      9 C26         -7.6080    -1.9660    -0.0610 ca         1 DJX       0.339400
     10 C1           0.4650     0.5340    -0.2020 ca         1 DJX       0.401900
     11 C2           1.6980    -0.0750    -0.3880 ca         1 DJX      -0.364000
     12 C3           2.8260     0.7500    -0.2870 ca         1 DJX       0.421900
     13 C5           1.4480     2.5320     0.0990 ca         1 DJX       0.209300
     14 C7           1.3000     3.9940     0.3850 c3         1 DJX      -0.135400
     15 C11          6.4400     0.6610     0.1730 c6         1 DJX       0.149800
     16 C14          4.4050    -1.0750    -0.7650 c6         1 DJX       0.221800
     17 C16          8.5580    -2.4010    -0.3570 c3         1 DJX      -0.090100
     18 C19         -4.4090    -0.0130    -0.1090 cc         1 DJX      -0.205000
     19 C23         -6.8030     0.6090     0.1090 ca         1 DJX      -0.163000
     20 C27         -6.2520    -1.6920    -0.1290 ca         1 DJX      -0.163000
     21 N4           2.6710     2.0660    -0.0560 nb         1 DJX      -0.287000
     22 N6           0.3200     1.8290     0.0460 nb         1 DJX      -0.228000
     23 N9           4.0940     0.2910    -0.4000 nh         1 DJX      -0.776300
     24 N21         -2.4800     1.2720    -0.2660 nd         1 DJX      -0.655000
     25 N25         -8.5440    -1.0360     0.0800 nb         1 DJX      -0.665000
     26 S18         -3.1440    -1.2040    -0.0910 ss         1 DJX      -0.108400
     27 H1           4.9540     2.1710    -0.1430 h1         1 DJX       0.058450
     28 H2           5.8840    -2.5550    -0.4240 h1         1 DJX       0.041450
     29 H3           8.7520    -0.3490     0.2060 h1         1 DJX       0.031200
     30 H4           7.8900    -1.3230     1.3860 h1         1 DJX       0.031200
     31 H5          -4.3920     2.1460    -0.2350 h4         1 DJX       0.044100
     32 H6          -8.8990     0.9810     0.2810 h4         1 DJX       0.019100
     33 H7          -7.9480    -2.9930    -0.1270 h4         1 DJX       0.019100
     34 H8           1.7540    -1.1300    -0.6060 ha         1 DJX       0.125000
     35 H9           1.0460     4.1450     1.4360 hc         1 DJX       0.060033
     36 H10          2.2210     4.5330     0.1770 hc         1 DJX       0.060033
     37 H11          0.4910     4.4220    -0.2050 hc         1 DJX       0.060033
     38 H12          7.2770     1.3350    -0.0220 h1         1 DJX       0.041450
     39 H13          4.5430    -1.1550    -1.8500 h1         1 DJX       0.058450
     40 H14          7.9040    -3.2630    -0.2270 hc         1 DJX       0.038033
     41 H15          8.7050    -2.2450    -1.4270 hc         1 DJX       0.038033
     42 H16          9.5220    -2.6590     0.0810 hc         1 DJX       0.038033
     43 H17         -6.5540     1.6570     0.1940 ha         1 DJX       0.123500
     44 H18         -5.5580    -2.5140    -0.2530 ha         1 DJX       0.123500
     45 H19         -0.4670    -1.2530    -0.3760 hn         1 DJX       0.508000
     46 H20          5.4500     1.3310    -1.6110 h1         1 DJX       0.058450
     47 H21          5.4450    -1.6510     1.0260 h1         1 DJX       0.041450
     48 H22          6.2560     0.6790     1.2610 h1         1 DJX       0.041450
     49 H23          3.5940    -1.7430    -0.4860 h1         1 DJX       0.058450
     50 N8          -0.6570    -0.2680    -0.2750 nu         1 DJX      -0.897800
@<TRIPOS>BOND
     1     1    15 1   
     2     1    23 1   
     3     1    27 1   
     4     1    46 1   
     5     2     3 1   
     6     2     4 1   
     7     2    15 1   
     8     3    16 1   
     9     3    28 1   
    10     3    47 1   
    11     4    17 1   
    12     4    29 1   
    13     4    30 1   
    14     5    24 2   
    15     5    26 1   
    16     5    50 1   
    17     6    18 2   
    18     6    24 1   
    19     6    31 1   
    20     7    18 1   
    21     7    19 ar  
    22     7    20 ar  
    23     8    19 ar  
    24     8    25 ar  
    25     8    32 1   
    26     9    20 ar  
    27     9    25 ar  
    28     9    33 1   
    29    10    11 ar  
    30    10    22 ar  
    31    10    50 1   
    32    11    12 ar  
    33    11    34 1   
    34    12    21 ar  
    35    12    23 1   
    36    13    14 1   
    37    13    21 ar  
    38    13    22 ar  
    39    14    35 1   
    40    14    36 1   
    41    14    37 1   
    42    15    38 1   
    43    15    48 1   
    44    16    23 1   
    45    16    39 1   
    46    16    49 1   
    47    17    40 1   
    48    17    41 1   
    49    17    42 1   
    50    18    26 1   
    51    19    43 1   
    52    20    44 1   
    53    45    50 1   
@<TRIPOS>SUBSTRUCTURE
     1 DJX         1 TEMP              0 ****  ****    0 ROOT
