@<TRIPOS>MOLECULE
DJY
   64    67     1     0     0
SMALL
abcg2


@<TRIPOS>ATOM
      1 C01         -5.1840     4.2710    -0.1970 c3         1 DJY       0.151900
      2 C04         -3.1270     2.4170     0.2120 ca         1 DJY      -0.199000
      3 C06         -2.4550     0.1320     0.5130 ca         1 DJY      -0.153600
      4 C07         -3.7750    -0.2550     0.3320 ca         1 DJY      -0.041000
      5 C09         -6.1920     0.2350    -0.0600 ce         1 DJY      -0.122200
      6 C10         -6.7230    -0.8770     0.4460 c2         1 DJY      -0.346000
      7 C11         -1.4290    -0.8930     0.8560 c          1 DJY       0.636700
      8 C14         -0.5370    -3.0420     0.0590 ca         1 DJY       0.024000
      9 C15         -0.1500    -3.6230    -1.1500 ca         1 DJY      -0.141000
     10 C17          1.1710    -5.2700     0.0190 ca         1 DJY      -0.193900
     11 C18          0.7750    -4.6890     1.2210 ca         1 DJY      -0.059000
     12 C19         -0.0730    -3.5920     1.2510 ca         1 DJY      -0.141000
     13 C20          2.0710    -6.4530    -0.0280 ce         1 DJY       0.676800
     14 N21          2.8550    -6.6330     1.0760 nv         1 DJY      -1.079200
     15 C23         -0.7360     1.9730     0.5930 cp         1 DJY      -0.073000
     16 C24         -0.4570     2.9320     1.5580 ca         1 DJY      -0.089000
     17 C26          1.8100     2.9080     0.8720 ca         1 DJY       0.283500
     18 C28          0.3290     1.5090    -0.1980 ca         1 DJY       0.331500
     19 C29          0.1460     0.5060    -1.3380 c          1 DJY       0.607500
     20 C32          3.2240     3.4080     0.9650 c          1 DJY       0.509600
     21 N34          4.0610     2.8490     0.0900 ns         1 DJY      -0.488900
     22 C35          5.4640     3.1850    -0.0180 c3         1 DJY       0.139000
     23 C38          7.4190     2.4420    -1.5430 cx         1 DJY      -0.131400
     24 O02         -5.4620     2.8840    -0.1440 os         1 DJY      -0.350100
     25 C03         -4.4540     2.0220     0.0560 ca         1 DJY       0.163100
     26 C05         -2.1220     1.4860     0.4410 cp         1 DJY       0.116000
     27 C08         -4.7980     0.6610     0.1120 ca         1 DJY      -0.115800
     28 O12         -0.6980    -0.7770     1.8220 o          1 DJY      -0.577100
     29 N13         -1.4170    -1.9600     0.0130 ns         1 DJY      -0.131000
     30 C16          0.6800    -4.7260    -1.1660 ca         1 DJY      -0.059000
     31 N22          2.0180    -7.2240    -1.0460 n2         1 DJY      -0.845100
     32 C25          0.8300     3.4230     1.7030 ca         1 DJY      -0.139000
     33 N27          1.5580     1.9730    -0.0360 nb         1 DJY      -0.659000
     34 O30         -0.8510     0.6980    -2.0570 o          1 DJY      -0.693000
     35 O31          1.0160    -0.3700    -1.4340 o          1 DJY      -0.693000
     36 O33          3.5450     4.2640     1.7820 o          1 DJY      -0.648100
     37 C36          5.9800     2.8150    -1.3790 cx         1 DJY      -0.139700
     38 C37          6.3570     1.3900    -1.6610 cx         1 DJY      -0.131400
     39 H013        -4.5220     4.5230    -1.0290 h1         1 DJY       0.037367
     40 H012        -6.1390     4.7680    -0.3460 h1         1 DJY       0.037367
     41 H011        -4.7390     4.6300     0.7330 h1         1 DJY       0.037367
     42 H041        -2.8530     3.4610     0.1380 ha         1 DJY       0.119000
     43 H071        -4.0270    -1.3090     0.3700 ha         1 DJY       0.114000
     44 H091        -6.8280     0.8850    -0.6490 ha         1 DJY       0.175000
     45 H101        -7.7560    -1.1320     0.2500 ha         1 DJY       0.155500
     46 H102        -6.1670    -1.5620     1.0740 ha         1 DJY       0.155500
     47 H151        -0.4960    -3.1980    -2.0830 ha         1 DJY       0.131000
     48 H181         1.1000    -5.1050     2.1660 ha         1 DJY       0.114500
     49 H191        -0.3770    -3.1920     2.2060 ha         1 DJY       0.131000
     50 H212         3.1340    -5.8220     1.6030 hn         1 DJY       0.455500
     51 H241        -1.2480     3.2950     2.2030 ha         1 DJY       0.102000
     52 H341         3.6800     2.1270    -0.5060 hn         1 DJY       0.363500
     53 H352         5.5870     4.2550     0.1590 h1         1 DJY       0.042200
     54 H351         6.0430     2.6670     0.7550 h1         1 DJY       0.042200
     55 H382         7.9290     2.7630    -2.4420 hc         1 DJY       0.070450
     56 H381         8.0430     2.4340    -0.6580 hc         1 DJY       0.070450
     57 H131        -1.8850    -1.8200    -0.8710 hn         1 DJY       0.171000
     58 H161         0.9690    -5.1630    -2.1130 ha         1 DJY       0.114500
     59 H1           2.7020    -7.9720    -0.9780 hn         1 DJY       0.353400
     60 H251         1.0600     4.1760     2.4430 ha         1 DJY       0.126000
     61 H361         5.5270     3.3640    -2.1990 hc         1 DJY       0.084700
     62 H372         6.1410     0.9880    -2.6430 hc         1 DJY       0.070450
     63 H371         6.2660     0.6720    -0.8550 hc         1 DJY       0.070450
     64 H211         3.5700    -7.3410     1.0230 hn         1 DJY       0.455500
@<TRIPOS>BOND
     1     1    24 1   
     2     1    39 1   
     3     1    40 1   
     4     1    41 1   
     5     2    25 ar  
     6     2    26 ar  
     7     2    42 1   
     8     3     4 ar  
     9     3     7 1   
    10     3    26 ar  
    11     4    27 ar  
    12     4    43 1   
    13     5     6 2   
    14     5    27 1   
    15     5    44 1   
    16     6    45 1   
    17     6    46 1   
    18     7    28 2   
    19     7    29 1   
    20     8     9 ar  
    21     8    12 ar  
    22     8    29 1   
    23     9    30 ar  
    24     9    47 1   
    25    10    11 ar  
    26    10    13 1   
    27    10    30 ar  
    28    11    12 ar  
    29    11    48 1   
    30    12    49 1   
    31    13    14 1   
    32    13    31 2   
    33    14    50 1   
    34    14    64 1   
    35    15    16 ar  
    36    15    18 ar  
    37    15    26 1   
    38    16    32 ar  
    39    16    51 1   
    40    17    20 1   
    41    17    32 ar  
    42    17    33 ar  
    43    18    19 1   
    44    18    33 ar  
    45    19    34 1   
    46    19    35 1   
    47    20    21 1   
    48    20    36 2   
    49    21    22 1   
    50    21    52 1   
    51    22    37 1   
    52    22    53 1   
    53    22    54 1   
    54    23    37 1   
    55    23    38 1   
    56    23    55 1   
    57    23    56 1   
    58    24    25 1   
    59    25    27 ar  
    60    29    57 1   
    61    30    58 1   
    62    31    59 1   
    63    32    60 1   
    64    37    38 1   
    65    37    61 1   
    66    38    62 1   
    67    38    63 1   
@<TRIPOS>SUBSTRUCTURE
     1 DJY         1 TEMP              0 ****  ****    0 ROOT
