@<TRIPOS>MOLECULE
DJY
   64    67     1     0     0
SMALL
No Charge or Current Charge


@<TRIPOS>ATOM
      1 C01         -5.2880     4.2750    -0.3630 c3         1 DJY       0.151900
      2 C04         -3.1300     2.3970     0.1150 ca         1 DJY      -0.199000
      3 C06         -2.3940     0.1060     0.4490 ca         1 DJY      -0.153600
      4 C07         -3.7260    -0.3350     0.2850 ca         1 DJY      -0.041000
      5 C09         -6.1780     0.1080    -0.1190 ce         1 DJY      -0.122200
      6 C10         -6.6760    -1.0540     0.3590 c2         1 DJY      -0.346000
      7 C11         -1.2660    -0.8690     0.7200 c          1 DJY       0.636700
      8 C14         -0.6590    -3.3070     0.1710 ca         1 DJY       0.024000
      9 C15         -1.2300    -4.4810    -0.3490 ca         1 DJY      -0.141000
     10 C17          0.8200    -5.7440     0.1050 ca         1 DJY      -0.193900
     11 C18          1.3870    -4.5640     0.6420 ca         1 DJY      -0.059000
     12 C19          0.6610    -3.3600     0.6670 ca         1 DJY      -0.141000
     13 C20          1.5700    -7.0410     0.1030 ce         1 DJY       0.676800
     14 N21          2.9170    -6.9940     0.1290 nv         1 DJY      -1.079200
     15 C23         -0.6890     2.0600     0.4730 cp         1 DJY      -0.073000
     16 C24         -0.4230     2.9060     1.5740 ca         1 DJY      -0.089000
     17 C26          1.8880     3.1230     0.8470 ca         1 DJY       0.283500
     18 C28          0.3990     1.8040    -0.4310 ca         1 DJY       0.331500
     19 C29          0.1270     0.9180    -1.6860 c          1 DJY       0.607500
     20 C32          3.2990     3.6930     1.0560 c          1 DJY       0.509600
     21 N34          4.2300     3.3230     0.1070 ns         1 DJY      -0.488900
     22 C35          5.6300     3.7320     0.1020 c3         1 DJY       0.139000
     23 C38          7.8220     2.9420    -1.1350 cx         1 DJY      -0.131400
     24 O02         -5.4960     2.8540    -0.2650 os         1 DJY      -0.350100
     25 C03         -4.4630     1.9610    -0.0380 ca         1 DJY       0.163100
     26 C05         -2.0700     1.4910     0.3460 cp         1 DJY       0.116000
     27 C08         -4.7670     0.5840     0.0480 ca         1 DJY      -0.115800
     28 O12         -0.3010    -0.5820     1.4180 o          1 DJY      -0.577100
     29 N13         -1.4510    -2.1270     0.1600 ns         1 DJY      -0.131000
     30 C16         -0.5070    -5.6860    -0.3740 ca         1 DJY      -0.059000
     31 N22          1.0110    -8.1720    -0.0310 n2         1 DJY      -0.845100
     32 C25          0.8610     3.4350     1.7600 ca         1 DJY      -0.139000
     33 N27          1.6530     2.3230    -0.2320 nb         1 DJY      -0.659000
     34 O30         -0.9900     0.8880    -2.1910 o          1 DJY      -0.693000
     35 O31          1.0690     0.3140    -2.1920 o          1 DJY      -0.693000
     36 O33          3.6070     4.4280     1.9910 o          1 DJY      -0.648100
     37 C36          6.3330     3.2020    -1.1390 cx         1 DJY      -0.139700
     38 C37          6.8530     1.7840    -1.1940 cx         1 DJY      -0.131400
     39 H013        -4.6120     4.5140    -1.1930 h1         1 DJY       0.037367
     40 H012        -6.2410     4.7860    -0.5430 h1         1 DJY       0.037367
     41 H011        -4.8610     4.6710     0.5670 h1         1 DJY       0.037367
     42 H041        -2.8830     3.4510     0.0450 ha         1 DJY       0.119000
     43 H071        -3.9570    -1.3940     0.3540 ha         1 DJY       0.114000
     44 H091        -6.8360     0.7870    -0.6650 ha         1 DJY       0.175000
     45 H101        -7.7200    -1.3260     0.2000 ha         1 DJY       0.155500
     46 H102        -6.0780    -1.7620     0.9330 ha         1 DJY       0.155500
     47 H151        -2.2470    -4.4660    -0.7350 ha         1 DJY       0.131000
     48 H181         2.3940    -4.5700     1.0530 ha         1 DJY       0.114500
     49 H191         1.1480    -2.4800     1.0740 ha         1 DJY       0.131000
     50 H212         3.3110    -6.0850    -0.0820 hn         1 DJY       0.455500
     51 H241        -1.2110     3.1360     2.2890 ha         1 DJY       0.102000
     52 H341         3.8900     2.7090    -0.6260 hn         1 DJY       0.363500
     53 H352         5.6850     4.8280     0.1180 h1         1 DJY       0.042200
     54 H351         6.1160     3.3450     1.0080 h1         1 DJY       0.042200
     55 H382         8.3810     3.1820    -2.0360 hc         1 DJY       0.070450
     56 H381         8.3670     3.0980    -0.2060 hc         1 DJY       0.070450
     57 H131        -2.3050    -2.2160    -0.3740 hn         1 DJY       0.171000
     58 H161        -0.9840    -6.5770    -0.7790 ha         1 DJY       0.114500
     59 H1           1.7080    -8.8950     0.1750 hn         1 DJY       0.353400
     60 H251         1.0650     4.0770     2.6120 ha         1 DJY       0.126000
     61 H361         5.9140     3.6070    -2.0580 hc         1 DJY       0.084700
     62 H372         6.7610     1.2460    -2.1350 hc         1 DJY       0.070450
     63 H371         6.7480     1.1660    -0.3050 hc         1 DJY       0.070450
     64 H211         3.3980    -7.7790    -0.2930 hn         1 DJY       0.455500
@<TRIPOS>BOND
     1     1    24 1   
     2     1    39 1   
     3     1    40 1   
     4     1    41 1   
     5     2    25 ar  
     6     2    26 ar  
     7     2    42 1   
     8     3     4 ar  
     9     3     7 1   
    10     3    26 ar  
    11     4    27 ar  
    12     4    43 1   
    13     5     6 2   
    14     5    27 1   
    15     5    44 1   
    16     6    45 1   
    17     6    46 1   
    18     7    28 2   
    19     7    29 1   
    20     8     9 ar  
    21     8    12 ar  
    22     8    29 1   
    23     9    30 ar  
    24     9    47 1   
    25    10    11 ar  
    26    10    13 1   
    27    10    30 ar  
    28    11    12 ar  
    29    11    48 1   
    30    12    49 1   
    31    13    14 1   
    32    13    31 2   
    33    14    50 1   
    34    14    64 1   
    35    15    16 ar  
    36    15    18 ar  
    37    15    26 1   
    38    16    32 ar  
    39    16    51 1   
    40    17    20 1   
    41    17    32 ar  
    42    17    33 ar  
    43    18    19 1   
    44    18    33 ar  
    45    19    34 1   
    46    19    35 1   
    47    20    21 1   
    48    20    36 2   
    49    21    22 1   
    50    21    52 1   
    51    22    37 1   
    52    22    53 1   
    53    22    54 1   
    54    23    37 1   
    55    23    38 1   
    56    23    55 1   
    57    23    56 1   
    58    24    25 1   
    59    25    27 ar  
    60    29    57 1   
    61    30    58 1   
    62    31    59 1   
    63    32    60 1   
    64    37    38 1   
    65    37    61 1   
    66    38    62 1   
    67    38    63 1   
@<TRIPOS>SUBSTRUCTURE
     1 DJY         1 TEMP              0 ****  ****    0 ROOT
