@<TRIPOS>MOLECULE
DJZ
   64    67     1     0     0
SMALL
abcg2


@<TRIPOS>ATOM
      1 O1           5.7670    -0.6150    -1.4800 os         1 DJZ      -0.368400
      2 C2           4.6030    -1.2810    -1.3990 ca         1 DJZ       0.390300
      3 N3           3.7090    -0.8850    -0.5330 nb         1 DJZ      -0.325000
      4 N4           2.2730    -2.6400    -1.2510 nb         1 DJZ      -0.270000
      5 C5           3.2100    -3.0060    -2.1180 ca         1 DJZ       0.166900
      6 C6           2.5650    -1.5900    -0.4810 ca         1 DJZ       0.419900
      7 C7           4.4240    -2.3680    -2.2560 ca         1 DJZ      -0.302000
      8 C8           5.9950     0.4460    -0.6340 ca         1 DJZ       0.128100
      9 C9           6.5660     0.1910     0.6110 ca         1 DJZ      -0.066300
     10 C10          6.8670     1.2800     1.4150 ca         1 DJZ      -0.074000
     11 C11          6.5930     2.5730     0.9770 ca         1 DJZ      -0.012000
     12 C12          6.0200     2.7960    -0.2730 ca         1 DJZ      -0.074000
     13 C13          5.7060     1.7260    -1.0980 ca         1 DJZ      -0.066300
     14 C14          5.0760     1.9430    -2.4400 c3         1 DJZ      -0.047300
     15 C15          6.8440    -1.2090     1.0670 c3         1 DJZ      -0.047300
     16 C16          6.9120     3.6830     1.8150 cg         1 DJZ       0.325000
     17 N17          1.6690    -1.1940     0.4360 nu         1 DJZ      -0.920100
     18 C18          0.3670    -1.7920     0.6330 c6         1 DJZ       0.247500
     19 C19         -0.0860    -1.5770     2.0710 c6         1 DJZ      -0.093400
     20 C20         -1.4740    -2.1590     2.2880 c6         1 DJZ       0.169800
     21 N21         -2.4310    -1.5810     1.3620 n3         1 DJZ      -0.726600
     22 C22         -2.0500    -1.8360    -0.0160 c6         1 DJZ       0.169800
     23 C23         -0.6850    -1.2430    -0.3260 c6         1 DJZ      -0.093400
     24 N24          7.1690     4.5790     2.4920 n1         1 DJZ      -0.452000
     25 C25         -3.7810    -2.0220     1.6330 c3         1 DJZ       0.207100
     26 C26         -4.8140    -1.1430     0.9760 ca         1 DJZ      -0.031300
     27 C27         -5.9640    -1.6950     0.4190 ca         1 DJZ      -0.120000
     28 C28         -6.9380    -0.8890    -0.1490 ca         1 DJZ      -0.019000
     29 C29         -6.7540     0.4860    -0.1550 ca         1 DJZ      -0.270500
     30 C30         -5.6110     1.0600     0.3880 ca         1 DJZ      -0.019000
     31 C31         -4.6470     0.2400     0.9490 ca         1 DJZ      -0.120000
     32 S32         -7.9990     1.5250    -0.8680 sy         1 DJZ       1.059500
     33 O33         -7.3850     2.8030    -1.2250 o          1 DJZ      -0.524000
     34 O34         -8.6940     0.7700    -1.9080 o          1 DJZ      -0.524000
     35 C35         -9.1360     1.8080     0.4700 c3         1 DJZ      -0.336100
     36 H5           2.9770    -3.8610    -2.7430 h4         1 DJZ       0.023100
     37 H7           5.1730    -2.6850    -2.9660 ha         1 DJZ       0.149000
     38 H10          7.3170     1.1220     2.3870 ha         1 DJZ       0.127500
     39 H12          5.8160     3.8060    -0.6020 ha         1 DJZ       0.127500
     40 H14          4.0480     1.5780    -2.4560 hc         1 DJZ       0.050867
     41 H14A         5.0510     3.0030    -2.6850 hc         1 DJZ       0.050867
     42 H14B         5.6170     1.4260    -3.2320 hc         1 DJZ       0.050867
     43 H15          7.4210    -1.7690     0.3300 hc         1 DJZ       0.050867
     44 H15A         7.4060    -1.2040     1.9990 hc         1 DJZ       0.050867
     45 H15B         5.9180    -1.7580     1.2440 hc         1 DJZ       0.050867
     46 HN17         1.8940    -0.3570     0.9490 hn         1 DJZ       0.506000
     47 H18          0.4660    -2.8670     0.4580 h1         1 DJZ       0.077700
     48 H19          0.6170    -2.0430     2.7640 hc         1 DJZ       0.056950
     49 H19A        -0.1070    -0.5050     2.2960 hc         1 DJZ       0.056950
     50 H20         -1.4270    -3.2580     2.1910 h1         1 DJZ       0.037700
     51 H20A        -1.8000    -1.9460     3.3080 h1         1 DJZ       0.037700
     52 H22         -2.0360    -2.9210    -0.2280 h1         1 DJZ       0.037700
     53 H22A        -2.7970    -1.3980    -0.6810 h1         1 DJZ       0.037700
     54 H23         -0.7300    -0.1530    -0.2320 hc         1 DJZ       0.056950
     55 H23A        -0.4120    -1.4750    -1.3570 hc         1 DJZ       0.056950
     56 H25         -3.9500    -3.0700     1.3380 h1         1 DJZ       0.044200
     57 H25A        -3.9430    -1.9820     2.7150 h1         1 DJZ       0.044200
     58 H27         -6.1000    -2.7700     0.4190 ha         1 DJZ       0.127500
     59 H28         -7.8200    -1.3370    -0.5860 ha         1 DJZ       0.136500
     60 H30         -5.4660     2.1310     0.3740 ha         1 DJZ       0.136500
     61 H31         -3.7460     0.6740     1.3600 ha         1 DJZ       0.127500
     62 H35         -8.6180     2.3110     1.2830 h1         1 DJZ       0.102033
     63 H35A        -9.9380     2.4390     0.0890 h1         1 DJZ       0.102033
     64 H35B        -9.5400     0.8570     0.8100 h1         1 DJZ       0.102033
@<TRIPOS>BOND
     1     1     2 1   
     2     1     8 1   
     3     2     3 ar  
     4     2     7 ar  
     5     3     6 ar  
     6     4     5 ar  
     7     4     6 ar  
     8     5     7 ar  
     9     5    36 1   
    10     6    17 1   
    11     7    37 1   
    12     8     9 ar  
    13     8    13 ar  
    14     9    10 ar  
    15     9    15 1   
    16    10    11 ar  
    17    10    38 1   
    18    11    12 ar  
    19    11    16 1   
    20    12    13 ar  
    21    12    39 1   
    22    13    14 1   
    23    14    40 1   
    24    14    41 1   
    25    14    42 1   
    26    15    43 1   
    27    15    44 1   
    28    15    45 1   
    29    16    24 3   
    30    17    18 1   
    31    17    46 1   
    32    18    19 1   
    33    18    23 1   
    34    18    47 1   
    35    19    20 1   
    36    19    48 1   
    37    19    49 1   
    38    20    21 1   
    39    20    50 1   
    40    20    51 1   
    41    21    22 1   
    42    21    25 1   
    43    22    23 1   
    44    22    52 1   
    45    22    53 1   
    46    23    54 1   
    47    23    55 1   
    48    25    26 1   
    49    25    56 1   
    50    25    57 1   
    51    26    27 ar  
    52    26    31 ar  
    53    27    28 ar  
    54    27    58 1   
    55    28    29 ar  
    56    28    59 1   
    57    29    30 ar  
    58    29    32 1   
    59    30    31 ar  
    60    30    60 1   
    61    31    61 1   
    62    32    33 2   
    63    32    34 2   
    64    32    35 1   
    65    35    62 1   
    66    35    63 1   
    67    35    64 1   
@<TRIPOS>SUBSTRUCTURE
     1 DJZ         1 TEMP              0 ****  ****    0 ROOT
