@<TRIPOS>MOLECULE
DJZ
   64    67     1     0     0
SMALL
No Charge or Current Charge


@<TRIPOS>ATOM
      1 O1           5.6980    -0.5930    -1.6410 os         1 DJZ      -0.368400
      2 C2           4.5200    -1.2860    -1.4870 ca         1 DJZ       0.390300
      3 N3           3.6750    -1.0020    -0.4750 nb         1 DJZ      -0.325000
      4 N4           2.1800    -2.7170    -1.2450 nb         1 DJZ      -0.270000
      5 C5           3.0250    -2.9990    -2.2530 ca         1 DJZ       0.166900
      6 C6           2.5530    -1.7290    -0.4110 ca         1 DJZ       0.419900
      7 C7           4.2260    -2.2940    -2.4130 ca         1 DJZ      -0.302000
      8 C8           6.0590     0.4290    -0.7900 ca         1 DJZ       0.128100
      9 C9           6.8380     0.1440     0.3530 ca         1 DJZ      -0.066300
     10 C10          7.2000     1.1930     1.2200 ca         1 DJZ      -0.074000
     11 C11          6.7950     2.5140     0.9490 ca         1 DJZ      -0.012000
     12 C12          6.0250     2.7890    -0.1960 ca         1 DJZ      -0.074000
     13 C13          5.6540     1.7520    -1.0740 ca         1 DJZ      -0.066300
     14 C14          4.8180     2.0650    -2.3100 c3         1 DJZ      -0.047300
     15 C15          7.2810    -1.2830     0.6590 c3         1 DJZ      -0.047300
     16 C16          7.1690     3.5790     1.8400 cg         1 DJZ       0.325000
     17 N17          1.7180    -1.4060     0.6450 nu         1 DJZ      -0.920100
     18 C18          0.3550    -1.9230     0.8680 c6         1 DJZ       0.247500
     19 C19         -0.0500    -1.6960     2.3400 c6         1 DJZ      -0.093400
     20 C20         -1.5030    -2.1620     2.5780 c6         1 DJZ       0.169800
     21 N21         -2.4520    -1.4710     1.6630 n3         1 DJZ      -0.726600
     22 C22         -2.0910    -1.6860     0.2320 c6         1 DJZ       0.169800
     23 C23         -0.6510    -1.2130    -0.0650 c6         1 DJZ      -0.093400
     24 N24          7.4810     4.4440     2.5600 n1         1 DJZ      -0.452000
     25 C25         -3.8650    -1.8140     1.9610 c3         1 DJZ       0.207100
     26 C26         -4.8770    -0.9800     1.1780 ca         1 DJZ      -0.031300
     27 C27         -5.7160    -1.5830     0.2210 ca         1 DJZ      -0.120000
     28 C28         -6.6460    -0.8130    -0.5000 ca         1 DJZ      -0.019000
     29 C29         -6.7420     0.5750    -0.2700 ca         1 DJZ      -0.270500
     30 C30         -5.9040     1.1820     0.6890 ca         1 DJZ      -0.019000
     31 C31         -4.9780     0.4060     1.4060 ca         1 DJZ      -0.120000
     32 S32         -7.9410     1.5670    -1.1860 sy         1 DJZ       1.059500
     33 O33         -7.4980     2.9670    -1.1880 o          1 DJZ      -0.524000
     34 O34         -8.2780     0.8720    -2.4350 o          1 DJZ      -0.524000
     35 C35         -9.4020     1.4940    -0.1510 c3         1 DJZ      -0.336100
     36 H5           2.7340    -3.7960    -2.9370 h4         1 DJZ       0.023100
     37 H7           4.9070    -2.5210    -3.2270 ha         1 DJZ       0.149000
     38 H10          7.7970     0.9820     2.1060 ha         1 DJZ       0.127500
     39 H12          5.7130     3.8110    -0.4040 ha         1 DJZ       0.127500
     40 H14          3.8090     1.6450    -2.2170 hc         1 DJZ       0.050867
     41 H14A         4.7140     3.1440    -2.4710 hc         1 DJZ       0.050867
     42 H14B         5.2750     1.6420    -3.2130 hc         1 DJZ       0.050867
     43 H15          7.7850    -1.7330    -0.2050 hc         1 DJZ       0.050867
     44 H15A         7.9790    -1.3220     1.5030 hc         1 DJZ       0.050867
     45 H15B         6.4200    -1.9140     0.9110 hc         1 DJZ       0.050867
     46 HN17         2.0490    -0.6400     1.2300 hn         1 DJZ       0.506000
     47 H18          0.3190    -3.0080     0.6750 h1         1 DJZ       0.077700
     48 H19          0.6270    -2.2460     3.0070 hc         1 DJZ       0.056950
     49 H19A         0.0380    -0.6330     2.6000 hc         1 DJZ       0.056950
     50 H20         -1.5610    -3.2520     2.4340 h1         1 DJZ       0.037700
     51 H20A        -1.7690    -1.9590     3.6260 h1         1 DJZ       0.037700
     52 H22         -2.1820    -2.7520    -0.0270 h1         1 DJZ       0.037700
     53 H22A        -2.7770    -1.1340    -0.4280 h1         1 DJZ       0.037700
     54 H23         -0.5900    -0.1250     0.0700 hc         1 DJZ       0.056950
     55 H23A        -0.4080    -1.4180    -1.1150 hc         1 DJZ       0.056950
     56 H25         -4.0420    -2.8800     1.7590 h1         1 DJZ       0.044200
     57 H25A        -4.0650    -1.6590     3.0300 h1         1 DJZ       0.044200
     58 H27         -5.6490    -2.6530     0.0340 ha         1 DJZ       0.127500
     59 H28         -7.2860    -1.3000    -1.2330 ha         1 DJZ       0.136500
     60 H30         -5.9650     2.2520     0.8830 ha         1 DJZ       0.136500
     61 H31         -4.3310     0.8810     2.1400 ha         1 DJZ       0.127500
     62 H35         -9.1500     1.9190     0.8260 h1         1 DJZ       0.102033
     63 H35A       -10.1930     2.0760    -0.6350 h1         1 DJZ       0.102033
     64 H35B        -9.6980     0.4450    -0.0510 h1         1 DJZ       0.102033
@<TRIPOS>BOND
     1     1     2 1   
     2     1     8 1   
     3     2     3 ar  
     4     2     7 ar  
     5     3     6 ar  
     6     4     5 ar  
     7     4     6 ar  
     8     5     7 ar  
     9     5    36 1   
    10     6    17 1   
    11     7    37 1   
    12     8     9 ar  
    13     8    13 ar  
    14     9    10 ar  
    15     9    15 1   
    16    10    11 ar  
    17    10    38 1   
    18    11    12 ar  
    19    11    16 1   
    20    12    13 ar  
    21    12    39 1   
    22    13    14 1   
    23    14    40 1   
    24    14    41 1   
    25    14    42 1   
    26    15    43 1   
    27    15    44 1   
    28    15    45 1   
    29    16    24 3   
    30    17    18 1   
    31    17    46 1   
    32    18    19 1   
    33    18    23 1   
    34    18    47 1   
    35    19    20 1   
    36    19    48 1   
    37    19    49 1   
    38    20    21 1   
    39    20    50 1   
    40    20    51 1   
    41    21    22 1   
    42    21    25 1   
    43    22    23 1   
    44    22    52 1   
    45    22    53 1   
    46    23    54 1   
    47    23    55 1   
    48    25    26 1   
    49    25    56 1   
    50    25    57 1   
    51    26    27 ar  
    52    26    31 ar  
    53    27    28 ar  
    54    27    58 1   
    55    28    29 ar  
    56    28    59 1   
    57    29    30 ar  
    58    29    32 1   
    59    30    31 ar  
    60    30    60 1   
    61    31    61 1   
    62    32    33 2   
    63    32    34 2   
    64    32    35 1   
    65    35    62 1   
    66    35    63 1   
    67    35    64 1   
@<TRIPOS>SUBSTRUCTURE
     1 DJZ         1 TEMP              0 ****  ****    0 ROOT
