@<TRIPOS>MOLECULE
DK0
   22    22     1     0     0
SMALL
bcc


@<TRIPOS>ATOM
      1 C14         -0.9750    40.0810   -23.0990 ca         1 DK0      -0.129000
      2 C15         -2.0410    39.4010   -22.5240 ca         1 DK0      -0.128000
      3 C11         -2.8220    41.4450   -21.4870 ca         1 DK0      -0.071300
      4 C13         -0.8280    41.4410   -22.8640 ca         1 DK0      -0.128000
      5 C12         -1.7440    42.1130   -22.0650 ca         1 DK0      -0.119500
      6 C2          -4.8060    43.5040   -22.5900 c3         1 DK0      -0.087100
      7 C02         -3.8240    42.1850   -20.6490 c3         1 DK0      -0.068100
      8 C04         -5.0950    42.6000   -21.4070 c3         1 DK0       0.155100
      9 C16         -2.9550    40.0780   -21.7270 ca         1 DK0      -0.119500
     10 O1          -5.8110    41.4830   -21.8930 oh         1 DK0      -0.592800
     11 H1          -0.2610    39.5530   -23.7170 ha         1 DK0       0.129000
     12 H2          -2.1620    38.3390   -22.6960 ha         1 DK0       0.129000
     13 H3           0.0030    41.9810   -23.3000 ha         1 DK0       0.129000
     14 H4          -1.6150    43.1740   -21.8830 ha         1 DK0       0.125500
     15 H6          -4.2010    42.9990   -23.3450 hc         1 DK0       0.044367
     16 H7          -5.7320    43.8350   -23.0600 hc         1 DK0       0.044367
     17 H8          -4.1200    41.5750   -19.7900 hc         1 DK0       0.047700
     18 H9          -3.3710    43.0900   -20.2370 hc         1 DK0       0.047700
     19 H10         -5.7100    43.1640   -20.6920 h1         1 DK0       0.022700
     20 H11         -3.7730    39.5300   -21.2760 ha         1 DK0       0.125500
     21 H12         -6.0420    40.9220   -21.1460 ho         1 DK0       0.398000
     22 H5          -4.2630    44.3920   -22.2650 hc         1 DK0       0.044367
@<TRIPOS>BOND
     1     1     2 ar  
     2     1     4 ar  
     3     1    11 1   
     4     2     9 ar  
     5     2    12 1   
     6     3     5 ar  
     7     3     7 1   
     8     3     9 ar  
     9     4     5 ar  
    10     4    13 1   
    11     5    14 1   
    12     6     8 1   
    13     6    15 1   
    14     6    16 1   
    15     6    22 1   
    16     7     8 1   
    17     7    17 1   
    18     7    18 1   
    19     8    10 1   
    20     8    19 1   
    21     9    20 1   
    22    10    21 1   
@<TRIPOS>SUBSTRUCTURE
     1 DK0         1 TEMP              0 ****  ****    0 ROOT
