@<TRIPOS>MOLECULE
DK0
   22    22     1     0     0
SMALL
No Charge or Current Charge


@<TRIPOS>ATOM
      1 C14         -0.9230    40.0600   -23.0930 ca         1 DK0      -0.111000
      2 C15         -1.9850    39.3520   -22.5060 ca         1 DK0      -0.110000
      3 C11         -2.8270    41.4180   -21.5130 ca         1 DK0      -0.071300
      4 C13         -0.8090    41.4450   -22.8890 ca         1 DK0      -0.110000
      5 C12         -1.7560    42.1210   -22.1000 ca         1 DK0      -0.101500
      6 C2          -4.8140    43.5630   -22.5960 c3         1 DK0      -0.087100
      7 C02         -3.8510    42.1550   -20.6490 c3         1 DK0      -0.068100
      8 C04         -5.1190    42.6320   -21.4050 c3         1 DK0       0.178300
      9 C16         -2.9320    40.0280   -21.7170 ca         1 DK0      -0.101500
     10 O1          -5.8710    41.5070   -21.8730 oh         1 DK0      -0.655000
     11 H1          -0.1900    39.5370   -23.7030 ha         1 DK0       0.111000
     12 H2          -2.0740    38.2790   -22.6610 ha         1 DK0       0.111000
     13 H3           0.0140    41.9960   -23.3400 ha         1 DK0       0.111000
     14 H4          -1.6580    43.1940   -21.9470 ha         1 DK0       0.107500
     15 H6          -4.2480    43.0390   -23.3750 hc         1 DK0       0.044367
     16 H7          -5.7450    43.9340   -23.0410 hc         1 DK0       0.044367
     17 H8          -4.1570    41.5170   -19.8110 hc         1 DK0       0.047700
     18 H9          -3.3790    43.0300   -20.1870 hc         1 DK0       0.047700
     19 H10         -5.7310    43.2000   -20.6920 h1         1 DK0       0.022700
     20 H11         -3.7500    39.4700   -21.2670 ha         1 DK0       0.107500
     21 H12         -6.1170    40.9800   -21.0820 ho         1 DK0       0.437000
     22 H5          -4.2270    44.4290   -22.2660 hc         1 DK0       0.044367
@<TRIPOS>BOND
     1     1     2 ar  
     2     1     4 ar  
     3     1    11 1   
     4     2     9 ar  
     5     2    12 1   
     6     3     5 ar  
     7     3     7 1   
     8     3     9 ar  
     9     4     5 ar  
    10     4    13 1   
    11     5    14 1   
    12     6     8 1   
    13     6    15 1   
    14     6    16 1   
    15     6    22 1   
    16     7     8 1   
    17     7    17 1   
    18     7    18 1   
    19     8    10 1   
    20     8    19 1   
    21     9    20 1   
    22    10    21 1   
@<TRIPOS>SUBSTRUCTURE
     1 DK0         1 TEMP              0 ****  ****    0 ROOT
