@<TRIPOS>MOLECULE
DK1
   20    21     1     0     0
SMALL
bcc


@<TRIPOS>ATOM
      1 O1           2.1700    -0.0470     3.8960 o          1 DK1      -0.793300
      2 C2           0.9350    -0.0140     3.7990 c          1 DK1       0.822100
      3 O2           0.0940    -0.0040     4.7170 o          1 DK1      -0.793300
      4 C1           0.3600     0.0190     2.3750 ca         1 DK1       0.404800
      5 N1           1.2010     0.0010     1.3690 nb         1 DK1      -0.656000
      6 C10          0.7090     0.0280     0.1170 ca         1 DK1       0.427600
      7 C9           1.6690     0.0040    -0.9230 ca         1 DK1      -0.147300
      8 C8           1.2680     0.0260    -2.2230 ca         1 DK1       0.017400
      9 CL2          2.4320    -0.0020    -3.4980 cl         1 DK1      -0.132400
     10 C7          -0.0930     0.0730    -2.5650 ca         1 DK1      -0.150000
     11 C6          -1.0280     0.0960    -1.5700 ca         1 DK1       0.063400
     12 CL1         -2.6840     0.1520    -2.1050 cl         1 DK1      -0.148400
     13 C5          -0.6850     0.0760    -0.1920 ca         1 DK1      -0.226300
     14 C4          -1.5700     0.0970     0.9310 ca         1 DK1       0.148100
     15 O3          -2.9000     0.1430     0.8640 oh         1 DK1      -0.508100
     16 C3          -1.0270     0.0660     2.1940 ca         1 DK1      -0.247300
     17 H9           2.7140    -0.0320    -0.6490 ha         1 DK1       0.168000
     18 H7          -0.3950     0.0900    -3.6030 ha         1 DK1       0.146000
     19 HO3         -3.2330     0.1730    -0.0420 ho         1 DK1       0.429000
     20 H3          -1.6820     0.0800     3.0530 ha         1 DK1       0.178000
@<TRIPOS>BOND
     1     1     2 1   
     2     2     3 1   
     3     2     4 1   
     4     4     5 ar  
     5     4    16 ar  
     6     5     6 ar  
     7     6     7 ar  
     8     6    13 ar  
     9     7     8 ar  
    10     7    17 1   
    11     8     9 1   
    12     8    10 ar  
    13    10    11 ar  
    14    10    18 1   
    15    11    12 1   
    16    11    13 ar  
    17    13    14 ar  
    18    14    15 1   
    19    14    16 ar  
    20    15    19 1   
    21    16    20 1   
@<TRIPOS>SUBSTRUCTURE
     1 DK1         1 TEMP              0 ****  ****    0 ROOT
