@<TRIPOS>MOLECULE
DK1
   20    21     1     0     0
SMALL
No Charge or Current Charge


@<TRIPOS>ATOM
      1 O1           2.1360    -0.0550     4.0620 o          1 DK1      -0.688000
      2 C2           0.9210    -0.0130     3.8830 c          1 DK1       0.611500
      3 O2           0.1320     0.0060     4.8230 o          1 DK1      -0.688000
      4 C1           0.3610     0.0180     2.4310 ca         1 DK1       0.339500
      5 N1           1.2170    -0.0010     1.3670 nb         1 DK1      -0.656000
      6 C10          0.7370     0.0250     0.1040 ca         1 DK1       0.297000
      7 C9           1.6670     0.0030    -0.9490 ca         1 DK1      -0.064000
      8 C8           1.2470     0.0280    -2.2810 ca         1 DK1       0.109000
      9 Cl2          2.4310    -0.0010    -3.5810 cl         1 DK1      -0.224000
     10 C7          -0.1160     0.0760    -2.5810 ca         1 DK1      -0.132000
     11 C6          -1.0690     0.1000    -1.5520 ca         1 DK1       0.155000
     12 Cl1         -2.7560     0.1610    -2.0760 cl         1 DK1      -0.240000
     13 C5          -0.6550     0.0740    -0.1850 ca         1 DK1      -0.161000
     14 C4          -1.5440     0.0950     0.9210 ca         1 DK1       0.148100
     15 O3          -2.9000     0.1410     0.7910 oh         1 DK1      -0.547100
     16 C3          -1.0280     0.0670     2.2180 ca         1 DK1      -0.164000
     17 H9           2.7280    -0.0350    -0.7250 ha         1 DK1       0.150000
     18 H7          -0.4390     0.0960    -3.6180 ha         1 DK1       0.128000
     19 HO3         -3.1090     0.1560    -0.1700 ho         1 DK1       0.468000
     20 H3          -1.7070     0.0820     3.0650 ha         1 DK1       0.160000
@<TRIPOS>BOND
     1     1     2 1   
     2     2     3 1   
     3     2     4 1   
     4     4     5 ar  
     5     4    16 ar  
     6     5     6 ar  
     7     6     7 ar  
     8     6    13 ar  
     9     7     8 ar  
    10     7    17 1   
    11     8     9 1   
    12     8    10 ar  
    13    10    11 ar  
    14    10    18 1   
    15    11    12 1   
    16    11    13 ar  
    17    13    14 ar  
    18    14    15 1   
    19    14    16 ar  
    20    15    19 1   
    21    16    20 1   
@<TRIPOS>SUBSTRUCTURE
     1 DK1         1 TEMP              0 ****  ****    0 ROOT
