@<TRIPOS>MOLECULE
DK2
   37    39     1     0     0
SMALL
No Charge or Current Charge


@<TRIPOS>ATOM
      1 O11          0.2250     2.5960     1.7190 o          1 DK2      -0.525000
      2 C7          -0.1120     1.7730     0.8790 c          1 DK2       0.601600
      3 C5          -1.4480     1.1210     0.7350 ca         1 DK2      -0.160600
      4 C4          -1.3940     0.2410    -0.3350 ca         1 DK2      -0.170600
      5 C3          -2.5050    -0.5230    -0.7190 ca         1 DK2      -0.026000
      6 C6          -2.6200     1.2840     1.4830 ca         1 DK2      -0.089000
      7 C1          -3.7520     0.5250     1.1170 ca         1 DK2      -0.094000
      8 C2          -3.7110    -0.3830     0.0180 ca         1 DK2      -0.142600
      9 C23         -4.9380    -1.1930    -0.3650 c          1 DK2       0.716600
     10 O24         -5.9600    -1.0570     0.2920 o          1 DK2      -0.727000
     11 O25         -4.8610    -1.9550    -1.3190 o          1 DK2      -0.727000
     12 N8           0.6750     1.2150    -0.1330 n          1 DK2      -0.347400
     13 C9          -0.0240     0.2960    -0.9230 c          1 DK2       0.596600
     14 O10          0.3890    -0.3160    -1.8980 o          1 DK2      -0.542000
     15 C12          2.0960     1.6010    -0.3900 c3         1 DK2      -0.025300
     16 C13          2.3410     3.1450    -0.3790 c          1 DK2       0.728000
     17 O14          3.1710     3.6230     0.3840 o          1 DK2      -0.721000
     18 O15          1.7100     3.8230    -1.1800 o          1 DK2      -0.721000
     19 C16          3.0720     0.8090     0.5240 c3         1 DK2      -0.031100
     20 C17          2.8770    -0.7000     0.4370 ca         1 DK2      -0.080300
     21 C18          3.4570    -1.4300    -0.6190 ca         1 DK2      -0.072500
     22 C19          3.2660    -2.8210    -0.7080 ca         1 DK2      -0.175500
     23 C20          2.4940    -3.4860     0.2570 ca         1 DK2       0.106100
     24 O26          2.3060    -4.8320     0.1750 oh         1 DK2      -0.550100
     25 C21          1.9130    -2.7650     1.3100 ca         1 DK2      -0.175500
     26 C22          2.1030    -1.3750     1.4020 ca         1 DK2      -0.072500
     27 H3          -2.4330    -1.2050    -1.5640 ha         1 DK2       0.142000
     28 H6          -2.6570     1.9750     2.3230 ha         1 DK2       0.104000
     29 H1          -4.6670     0.6450     1.6930 ha         1 DK2       0.121000
     30 H12          2.3290     1.3000    -1.4180 h1         1 DK2       0.054700
     31 H161         4.1040     1.0620     0.2500 hc         1 DK2       0.060200
     32 H162         2.9430     1.1440     1.5610 hc         1 DK2       0.060200
     33 H18          4.0510    -0.9190    -1.3740 ha         1 DK2       0.116000
     34 H19          3.7180    -3.3720    -1.5290 ha         1 DK2       0.103000
     35 HO26         2.7790    -5.1620    -0.6190 ho         1 DK2       0.447000
     36 H21          1.3130    -3.2800     2.0570 ha         1 DK2       0.103000
     37 H22          1.6450    -0.8230     2.2200 ha         1 DK2       0.116000
@<TRIPOS>BOND
     1     1     2 2   
     2     2     3 1   
     3     2    12 1   
     4     3     4 ar  
     5     3     6 ar  
     6     4     5 ar  
     7     4    13 1   
     8     5     8 ar  
     9     5    27 1   
    10     6     7 ar  
    11     6    28 1   
    12     7     8 ar  
    13     7    29 1   
    14     8     9 1   
    15     9    10 1   
    16     9    11 1   
    17    12    13 1   
    18    12    15 1   
    19    13    14 2   
    20    15    16 1   
    21    15    19 1   
    22    15    30 1   
    23    16    17 1   
    24    16    18 1   
    25    19    20 1   
    26    19    31 1   
    27    19    32 1   
    28    20    21 ar  
    29    20    26 ar  
    30    21    22 ar  
    31    21    33 1   
    32    22    23 ar  
    33    22    34 1   
    34    23    24 1   
    35    23    25 ar  
    36    24    35 1   
    37    25    26 ar  
    38    25    36 1   
    39    26    37 1   
@<TRIPOS>SUBSTRUCTURE
     1 DK2         1 TEMP              0 ****  ****    0 ROOT
