@<TRIPOS>MOLECULE
DK2
   37    39     1     0     0
SMALL
bcc


@<TRIPOS>ATOM
      1 O11          0.4450     2.0910     1.8870 o          1 DK2      -0.600500
      2 C7           0.0100     1.4840     0.9390 c          1 DK2       0.744100
      3 C5          -1.3500     0.9210     0.7610 ca         1 DK2      -0.160600
      4 C4          -1.3890     0.2840    -0.4680 ca         1 DK2      -0.170600
      5 C3          -2.5230    -0.3490    -0.9220 ca         1 DK2      -0.044000
      6 C6          -2.4530     0.9500     1.5860 ca         1 DK2      -0.107000
      7 C1          -3.6050     0.3100     1.1330 ca         1 DK2      -0.112000
      8 C2          -3.6560    -0.3360    -0.1020 ca         1 DK2      -0.142600
      9 C23         -4.9410    -1.0260    -0.5600 c          1 DK2       0.927200
     10 O24         -5.9020    -0.9860     0.2290 o          1 DK2      -0.832300
     11 O25         -4.9060    -1.5640    -1.6810 o          1 DK2      -0.832300
     12 N8           0.7190     1.1460    -0.1990 n          1 DK2      -0.481400
     13 C9          -0.0580     0.4410    -1.1000 c          1 DK2       0.739100
     14 O10          0.3020     0.0470    -2.1830 o          1 DK2      -0.617500
     15 C12          2.0820     1.5600    -0.4470 c3         1 DK2      -0.025300
     16 C13          2.2000     3.1090    -0.4730 c          1 DK2       0.938600
     17 O14          3.3470     3.5610    -0.3030 o          1 DK2      -0.826300
     18 O15          1.1600     3.7410    -0.7130 o          1 DK2      -0.826300
     19 C16          3.0670     0.8620     0.4990 c3         1 DK2      -0.031100
     20 C17          2.8820    -0.6290     0.4990 ca         1 DK2      -0.080300
     21 C18          3.3980    -1.4180    -0.5250 ca         1 DK2      -0.090500
     22 C19          3.1910    -2.7890    -0.5610 ca         1 DK2      -0.193500
     23 C20          2.4470    -3.4070     0.4400 ca         1 DK2       0.106100
     24 O26          2.2110    -4.7370     0.4580 oh         1 DK2      -0.511100
     25 C21          1.9230    -2.6360     1.4730 ca         1 DK2      -0.193500
     26 C22          2.1430    -1.2670     1.4920 ca         1 DK2      -0.090500
     27 H3          -2.5480    -0.8470    -1.8830 ha         1 DK2       0.160000
     28 H6          -2.4330     1.4470     2.5460 ha         1 DK2       0.122000
     29 H1          -4.4910     0.3120     1.7540 ha         1 DK2       0.139000
     30 H12          2.3060     1.2180    -1.4620 h1         1 DK2       0.054700
     31 H161         4.0730     1.1180     0.1670 hc         1 DK2       0.060200
     32 H162         2.9610     1.2520     1.5120 hc         1 DK2       0.060200
     33 H18          3.9790    -0.9580    -1.3160 ha         1 DK2       0.134000
     34 H19          3.6130    -3.3760    -1.3700 ha         1 DK2       0.121000
     35 HO26         2.6090    -5.1560    -0.3130 ho         1 DK2       0.408000
     36 H21          1.3490    -3.1080     2.2610 ha         1 DK2       0.121000
     37 H22          1.7320    -0.6850     2.3090 ha         1 DK2       0.134000
@<TRIPOS>BOND
     1     1     2 2   
     2     2     3 1   
     3     2    12 1   
     4     3     4 ar  
     5     3     6 ar  
     6     4     5 ar  
     7     4    13 1   
     8     5     8 ar  
     9     5    27 1   
    10     6     7 ar  
    11     6    28 1   
    12     7     8 ar  
    13     7    29 1   
    14     8     9 1   
    15     9    10 1   
    16     9    11 1   
    17    12    13 1   
    18    12    15 1   
    19    13    14 2   
    20    15    16 1   
    21    15    19 1   
    22    15    30 1   
    23    16    17 1   
    24    16    18 1   
    25    19    20 1   
    26    19    31 1   
    27    19    32 1   
    28    20    21 ar  
    29    20    26 ar  
    30    21    22 ar  
    31    21    33 1   
    32    22    23 ar  
    33    22    34 1   
    34    23    24 1   
    35    23    25 ar  
    36    24    35 1   
    37    25    26 ar  
    38    25    36 1   
    39    26    37 1   
@<TRIPOS>SUBSTRUCTURE
     1 DK2         1 TEMP              0 ****  ****    0 ROOT
