@<TRIPOS>MOLECULE
DK3
   42    41     1     0     0
SMALL
No Charge or Current Charge


@<TRIPOS>ATOM
      1 C12          8.9330    -0.1880     0.1230 c3         1 DK3      -0.088100
      2 C13         -7.3150     0.4260     0.3880 c3         1 DK3       0.152900
      3 C11          7.6050     0.5860     0.0080 c3         1 DK3      -0.075400
      4 O3          -2.8790     0.9000     0.8570 oh         1 DK3      -0.648000
      5 C3          -2.7030    -0.0110    -0.2330 c3         1 DK3       0.175300
      6 C2          -3.9010    -0.9800    -0.2770 c3         1 DK3      -0.175400
      7 C1          -5.2030    -0.2370    -0.5660 c          1 DK3       0.599100
      8 O1          -6.0290    -0.2050     0.5290 os         1 DK3      -0.446100
      9 O2          -5.5170     0.1610    -1.6790 o          1 DK3      -0.481000
     10 C4          -1.3540    -0.7540    -0.0700 c3         1 DK3      -0.109400
     11 C5          -0.1110     0.1670    -0.1360 c3         1 DK3      -0.071400
     12 C6           1.2190    -0.6090    -0.0210 c3         1 DK3      -0.075400
     13 C7           2.4610     0.3070    -0.0880 c3         1 DK3      -0.074400
     14 C8           3.7910    -0.4690     0.0270 c3         1 DK3      -0.074400
     15 C9           5.0330     0.4470    -0.0400 c3         1 DK3      -0.074400
     16 C10          6.3640    -0.3300     0.0750 c3         1 DK3      -0.075400
     17 H12          9.0300    -0.9150    -0.6930 hc         1 DK3       0.031367
     18 H12A         9.7830     0.5020     0.0700 hc         1 DK3       0.031367
     19 H12B         8.9870    -0.7270     1.0760 hc         1 DK3       0.031367
     20 H13         -7.8660     0.3870     1.3360 h1         1 DK3       0.048367
     21 H13A        -7.2040     1.4800     0.1020 h1         1 DK3       0.048367
     22 H13B        -7.9180    -0.0800    -0.3760 h1         1 DK3       0.048367
     23 H11          7.5550     1.3280     0.8150 hc         1 DK3       0.036700
     24 H11A         7.5980     1.1410    -0.9390 hc         1 DK3       0.036700
     25 H3          -2.6760     0.5410    -1.1850 h1         1 DK3       0.092700
     26 H2          -3.7330    -1.7050    -1.0810 hc         1 DK3       0.073700
     27 H2A         -3.9720    -1.4980     0.6870 hc         1 DK3       0.073700
     28 H4          -1.3490    -1.3040     0.8790 hc         1 DK3       0.042200
     29 H4A         -1.2710    -1.5050    -0.8660 hc         1 DK3       0.042200
     30 H5          -0.1240     0.7210    -1.0830 hc         1 DK3       0.047700
     31 H5A         -0.1610     0.9100     0.6690 hc         1 DK3       0.047700
     32 H6           1.2320    -1.1640     0.9260 hc         1 DK3       0.036200
     33 H6A          1.2750    -1.3500    -0.8280 hc         1 DK3       0.036200
     34 H7           2.4490     0.8620    -1.0340 hc         1 DK3       0.039200
     35 H7A          2.4060     1.0480     0.7190 hc         1 DK3       0.039200
     36 H8           3.8040    -1.0240     0.9730 hc         1 DK3       0.036700
     37 H8A          3.8470    -1.2110    -0.7800 hc         1 DK3       0.036700
     38 H9           5.0210     1.0020    -0.9870 hc         1 DK3       0.037700
     39 H9A          4.9780     1.1880     0.7670 hc         1 DK3       0.037700
     40 H10          6.4190    -1.0710    -0.7320 hc         1 DK3       0.036700
     41 H10A         6.3760    -0.8850     1.0210 hc         1 DK3       0.036700
     42 HO3         -2.7230     0.3930     1.6830 ho         1 DK3       0.438000
@<TRIPOS>BOND
     1     1     3 1   
     2     1    17 1   
     3     1    18 1   
     4     1    19 1   
     5     2     8 1   
     6     2    20 1   
     7     2    21 1   
     8     2    22 1   
     9     3    16 1   
    10     3    23 1   
    11     3    24 1   
    12     4     5 1   
    13     4    42 1   
    14     5     6 1   
    15     5    10 1   
    16     5    25 1   
    17     6     7 1   
    18     6    26 1   
    19     6    27 1   
    20     7     8 1   
    21     7     9 2   
    22    10    11 1   
    23    10    28 1   
    24    10    29 1   
    25    11    12 1   
    26    11    30 1   
    27    11    31 1   
    28    12    13 1   
    29    12    32 1   
    30    12    33 1   
    31    13    14 1   
    32    13    34 1   
    33    13    35 1   
    34    14    15 1   
    35    14    36 1   
    36    14    37 1   
    37    15    16 1   
    38    15    38 1   
    39    15    39 1   
    40    16    40 1   
    41    16    41 1   
@<TRIPOS>SUBSTRUCTURE
     1 DK3         1 TEMP              0 ****  ****    0 ROOT
