@<TRIPOS>MOLECULE
DK3
   42    41     1     0     0
SMALL
abcg2


@<TRIPOS>ATOM
      1 C12          8.8380    -0.2910     0.1450 c3         1 DK3      -0.088100
      2 C13         -7.3340     0.0860     0.3250 c3         1 DK3       0.152900
      3 C11          7.5510     0.5060    -0.0180 c3         1 DK3      -0.075400
      4 O3          -2.8060     1.1490     0.6850 oh         1 DK3      -0.648000
      5 C3          -2.6290     0.1020    -0.2470 c3         1 DK3       0.175300
      6 C2          -3.8090    -0.8690    -0.1990 c3         1 DK3      -0.175400
      7 C1          -5.1160    -0.1580    -0.4260 c          1 DK3       0.599100
      8 O1          -6.0410    -0.5040     0.4590 os         1 DK3      -0.446100
      9 O2          -5.3160     0.6250    -1.3220 o          1 DK3      -0.481000
     10 C4          -1.3120    -0.6400    -0.0530 c3         1 DK3      -0.109400
     11 C5          -0.0800     0.2490    -0.1610 c3         1 DK3      -0.071400
     12 C6           1.2180    -0.5320    -0.0070 c3         1 DK3      -0.075400
     13 C7           2.4620     0.3400    -0.1210 c3         1 DK3      -0.074400
     14 C8           3.7600    -0.4440     0.0340 c3         1 DK3      -0.074400
     15 C9           5.0060     0.4250    -0.0780 c3         1 DK3      -0.074400
     16 C10          6.3020    -0.3620     0.0740 c3         1 DK3      -0.075400
     17 H12          8.9300    -1.0560    -0.6280 hc         1 DK3       0.031367
     18 H12A         9.7190     0.3480     0.0840 hc         1 DK3       0.031367
     19 H12B         8.8650    -0.7980     1.1120 hc         1 DK3       0.031367
     20 H13         -7.9340    -0.3250     1.1320 h1         1 DK3       0.048367
     21 H13A        -7.2900     1.1710     0.4260 h1         1 DK3       0.048367
     22 H13B        -7.7920    -0.1680    -0.6300 h1         1 DK3       0.048367
     23 H11          7.5050     1.2880     0.7470 hc         1 DK3       0.036700
     24 H11A         7.5600     1.0260    -0.9810 hc         1 DK3       0.036700
     25 H3          -2.6150     0.5860    -1.2280 h1         1 DK3       0.092700
     26 H2          -3.6970    -1.6160    -0.9910 hc         1 DK3       0.073700
     27 H2A         -3.8210    -1.4100     0.7490 hc         1 DK3       0.073700
     28 H4          -1.3200    -1.1480     0.9200 hc         1 DK3       0.042200
     29 H4A         -1.2520    -1.4330    -0.8060 hc         1 DK3       0.042200
     30 H5          -0.0850     0.7590    -1.1310 hc         1 DK3       0.047700
     31 H5A         -0.1210     1.0360     0.5990 hc         1 DK3       0.047700
     32 H6           1.2220    -1.0430     0.9620 hc         1 DK3       0.036200
     33 H6A          1.2590    -1.3230    -0.7650 hc         1 DK3       0.036200
     34 H7           2.4600     0.8510    -1.0910 hc         1 DK3       0.039200
     35 H7A          2.4230     1.1300     0.6370 hc         1 DK3       0.039200
     36 H8           3.7600    -0.9550     1.0030 hc         1 DK3       0.036700
     37 H8A          3.7980    -1.2340    -0.7250 hc         1 DK3       0.036700
     38 H9           5.0050     0.9390    -1.0460 hc         1 DK3       0.037700
     39 H9A          4.9690     1.2130     0.6820 hc         1 DK3       0.037700
     40 H10          6.3470    -1.1420    -0.6940 hc         1 DK3       0.036700
     41 H10A         6.2980    -0.8870     1.0360 hc         1 DK3       0.036700
     42 HO3         -2.7320     0.7810     1.5730 ho         1 DK3       0.438000
@<TRIPOS>BOND
     1     1     3 1   
     2     1    17 1   
     3     1    18 1   
     4     1    19 1   
     5     2     8 1   
     6     2    20 1   
     7     2    21 1   
     8     2    22 1   
     9     3    16 1   
    10     3    23 1   
    11     3    24 1   
    12     4     5 1   
    13     4    42 1   
    14     5     6 1   
    15     5    10 1   
    16     5    25 1   
    17     6     7 1   
    18     6    26 1   
    19     6    27 1   
    20     7     8 1   
    21     7     9 2   
    22    10    11 1   
    23    10    28 1   
    24    10    29 1   
    25    11    12 1   
    26    11    30 1   
    27    11    31 1   
    28    12    13 1   
    29    12    32 1   
    30    12    33 1   
    31    13    14 1   
    32    13    34 1   
    33    13    35 1   
    34    14    15 1   
    35    14    36 1   
    36    14    37 1   
    37    15    16 1   
    38    15    38 1   
    39    15    39 1   
    40    16    40 1   
    41    16    41 1   
@<TRIPOS>SUBSTRUCTURE
     1 DK3         1 TEMP              0 ****  ****    0 ROOT
