@<TRIPOS>MOLECULE
DK4
   32    33     1     0     0
SMALL
bcc


@<TRIPOS>ATOM
      1 C1          -0.3810     0.1910     0.5500 c6         1 DK4       0.315500
      2 N1           1.0480     0.0400     0.3700 n          1 DK4      -0.359000
      3 C2          -0.9000     1.4300    -0.1820 c6         1 DK4       0.083100
      4 N2           3.2270     0.0900     1.1460 ns         1 DK4      -0.601500
      5 O2          -0.2760     2.5410     0.3940 oh         1 DK4      -0.570800
      6 C3          -2.4110     1.4540    -0.0280 c6         1 DK4       0.100600
      7 F3          -2.9250     2.5110    -0.7770 f          1 DK4      -0.244300
      8 C4          -3.0440     0.1540    -0.4980 c6         1 DK4       0.093100
      9 O4          -4.4200     0.1210    -0.2220 oh         1 DK4      -0.582800
     10 C5          -2.3840    -1.0110     0.2460 c6         1 DK4       0.155100
     11 O5          -0.9800    -0.9670     0.0560 os         1 DK4      -0.405600
     12 C6          -2.8700    -2.3520    -0.2580 c3         1 DK4       0.149400
     13 O6          -2.2820    -3.3640     0.5210 oh         1 DK4      -0.583800
     14 C7           1.5270    -0.2660    -0.8790 cc         1 DK4       0.008600
     15 C8           2.8340    -0.3920    -1.1160 cd         1 DK4      -0.036700
     16 F8           3.2970    -0.6980    -2.3290 f          1 DK4      -0.138500
     17 C9           3.8130    -0.2110    -0.0670 c          1 DK4       0.719700
     18 O9           5.0140    -0.3070    -0.2030 o          1 DK4      -0.570500
     19 C10          1.8930     0.2300     1.4430 c          1 DK4       0.844500
     20 O10          1.5110     0.4960     2.5610 o          1 DK4      -0.611500
     21 H1          -0.5580     0.3080     1.6250 h2         1 DK4       0.106700
     22 H2          -0.6620     1.3410    -1.2530 h1         1 DK4       0.052700
     23 HN2          3.8580     0.2300     1.9270 hn         1 DK4       0.349500
     24 HO2         -0.3400     3.2860    -0.2110 ho         1 DK4       0.424000
     25 H3          -2.6780     1.6380     1.0190 h1         1 DK4       0.088700
     26 H4          -2.8470     0.0320    -1.5740 h1         1 DK4       0.053700
     27 HO4         -4.8770     0.6850    -0.8530 ho         1 DK4       0.424000
     28 H5          -2.6150    -0.9230     1.3200 h1         1 DK4       0.075700
     29 H6          -3.9620    -2.3680    -0.1890 h1         1 DK4       0.037200
     30 H6A         -2.6110    -2.4470    -1.3210 h1         1 DK4       0.037200
     31 HO6         -2.6570    -4.2060     0.2460 ho         1 DK4       0.410000
     32 H7           0.7990    -0.4140    -1.6640 h4         1 DK4       0.176000
@<TRIPOS>BOND
     1     1     2 1   
     2     1     3 1   
     3     1    11 1   
     4     1    21 1   
     5     2    14 1   
     6     2    19 1   
     7     3     5 1   
     8     3     6 1   
     9     3    22 1   
    10     4    17 1   
    11     4    19 1   
    12     4    23 1   
    13     5    24 1   
    14     6     7 1   
    15     6     8 1   
    16     6    25 1   
    17     8     9 1   
    18     8    10 1   
    19     8    26 1   
    20     9    27 1   
    21    10    11 1   
    22    10    12 1   
    23    10    28 1   
    24    12    13 1   
    25    12    29 1   
    26    12    30 1   
    27    13    31 1   
    28    14    15 2   
    29    14    32 1   
    30    15    16 1   
    31    15    17 1   
    32    17    18 2   
    33    19    20 2   
@<TRIPOS>SUBSTRUCTURE
     1 DK4         1 TEMP              0 ****  ****    0 ROOT
