@<TRIPOS>MOLECULE
DK4
   32    33     1     0     0
SMALL
No Charge or Current Charge


@<TRIPOS>ATOM
      1 C1          -0.3400     0.2160     0.5170 c6         1 DK4       0.338700
      2 N1           1.1170     0.0150     0.3210 n          1 DK4      -0.292000
      3 C2          -0.9040     1.4560    -0.2570 c6         1 DK4       0.106300
      4 N2           3.2990    -0.0380     1.2100 ns         1 DK4      -0.467500
      5 O2          -0.3080     2.6930     0.1980 oh         1 DK4      -0.693000
      6 C3          -2.4490     1.4920    -0.0820 c6         1 DK4       0.119300
      7 F3          -2.9720     2.5150    -0.9060 f          1 DK4      -0.263000
      8 C4          -3.1070     0.1410    -0.4910 c6         1 DK4       0.116300
      9 O4          -4.5290     0.1750    -0.2510 oh         1 DK4      -0.705000
     10 C5          -2.4210    -1.0230     0.2930 c6         1 DK4       0.178300
     11 O5          -0.9870    -0.9930     0.0660 os         1 DK4      -0.452000
     12 C6          -2.9560    -2.4300    -0.1360 c3         1 DK4       0.172600
     13 O6          -2.2970    -3.5220     0.5400 oh         1 DK4      -0.706000
     14 C7           1.6500    -0.1740    -0.9640 cc         1 DK4      -0.041400
     15 C8           3.0090    -0.2950    -1.1410 cd         1 DK4      -0.036700
     16 F8           3.5370    -0.4850    -2.3670 f          1 DK4      -0.138500
     17 C9           3.9350    -0.2250     0.0180 c          1 DK4       0.577200
     18 O9           5.1510    -0.3230    -0.0500 o          1 DK4      -0.495000
     19 C10          1.9640     0.0910     1.4480 c          1 DK4       0.635000
     20 O10          1.5580     0.2620     2.5850 o          1 DK4      -0.536000
     21 H1          -0.5490     0.3550     1.5890 h2         1 DK4       0.106700
     22 H2          -0.6930     1.3180    -1.3270 h1         1 DK4       0.052700
     23 HN2          3.8930     0.0160     2.0220 hn         1 DK4       0.349500
     24 HO2         -0.7340     3.4230    -0.3120 ho         1 DK4       0.523000
     25 H3          -2.7050     1.7350     0.9600 h1         1 DK4       0.088700
     26 H4          -2.9170    -0.0200    -1.5630 h1         1 DK4       0.053700
     27 HO4         -4.8830     0.9590    -0.7360 ho         1 DK4       0.523000
     28 H5          -2.6140    -0.9020     1.3690 h1         1 DK4       0.075700
     29 H6          -4.0350    -2.4640     0.0660 h1         1 DK4       0.037200
     30 H6A         -2.8260    -2.5270    -1.2220 h1         1 DK4       0.037200
     31 HO6         -2.6540    -4.3570     0.1540 ho         1 DK4       0.509000
     32 H7           0.9070    -0.2320    -1.7530 h4         1 DK4       0.226000
@<TRIPOS>BOND
     1     1     2 1   
     2     1     3 1   
     3     1    11 1   
     4     1    21 1   
     5     2    14 1   
     6     2    19 1   
     7     3     5 1   
     8     3     6 1   
     9     3    22 1   
    10     4    17 1   
    11     4    19 1   
    12     4    23 1   
    13     5    24 1   
    14     6     7 1   
    15     6     8 1   
    16     6    25 1   
    17     8     9 1   
    18     8    10 1   
    19     8    26 1   
    20     9    27 1   
    21    10    11 1   
    22    10    12 1   
    23    10    28 1   
    24    12    13 1   
    25    12    29 1   
    26    12    30 1   
    27    13    31 1   
    28    14    15 2   
    29    14    32 1   
    30    15    16 1   
    31    15    17 1   
    32    17    18 2   
    33    19    20 2   
@<TRIPOS>SUBSTRUCTURE
     1 DK4         1 TEMP              0 ****  ****    0 ROOT
