@<TRIPOS>MOLECULE
DK5
   44    46     1     0     0
SMALL
abcg2


@<TRIPOS>ATOM
      1 C1          -2.5010     0.3340     0.6640 c6         1 DK5       0.344700
      2 N1          -1.0560     0.2070     0.5600 n          1 DK5      -0.309000
      3 C2          -3.0610     1.6270     0.0860 c6         1 DK5      -0.148400
      4 N2           0.9450     0.1160    -0.7010 nc         1 DK5      -0.689100
      5 C3          -4.5590     1.6060     0.3030 c6         1 DK5       0.159300
      6 F3          -5.1320     2.7230    -0.3070 f          1 DK5      -0.262000
      7 C4          -5.1820     0.3500    -0.2840 c6         1 DK5       0.108300
      8 O4          -6.5460     0.2420     0.0330 oh         1 DK5      -0.715000
      9 C5          -4.4720    -0.8780     0.3010 c6         1 DK5       0.180300
     10 O5          -3.0790    -0.7930     0.0770 os         1 DK5      -0.428000
     11 C6          -4.9600    -2.1630    -0.3320 c3         1 DK5       0.171600
     12 O6          -4.3220    -3.2470     0.2990 oh         1 DK5      -0.712000
     13 C7          -0.3430     0.0340     1.6980 cc         1 DK5       0.024600
     14 C8           1.0000    -0.0880     1.6820 cd         1 DK5      -0.478600
     15 C9           1.6160    -0.0260     0.4030 cd         1 DK5       0.628200
     16 C10         -0.4110     0.2150    -0.6900 c          1 DK5       0.714400
     17 O10         -1.0570     0.3150    -1.7150 o          1 DK5      -0.504000
     18 C11          3.8410    -0.1580    -0.6980 c          1 DK5       0.620700
     19 O11          3.4710    -0.2780    -1.8420 o          1 DK5      -0.496100
     20 C12          5.2870    -0.0760    -0.3420 ca         1 DK5      -0.160600
     21 C13          5.7500     0.5970     0.7880 ca         1 DK5      -0.070500
     22 C14          7.1100     0.6710     1.0480 ca         1 DK5      -0.118000
     23 C15          8.0170     0.0670     0.1890 ca         1 DK5      -0.085000
     24 C16          7.5620    -0.6010    -0.9420 ca         1 DK5      -0.118000
     25 C17          6.2040    -0.6640    -1.2110 ca         1 DK5      -0.070500
     26 H1          -2.7110     0.3380     1.7420 h2         1 DK5       0.029700
     27 H2          -2.6110     2.4790     0.5990 hc         1 DK5       0.090200
     28 H2A         -2.8440     1.7060    -0.9780 hc         1 DK5       0.090200
     29 H3          -4.7990     1.6680     1.3700 h1         1 DK5       0.060700
     30 HN3          3.4150    -0.1860     1.2960 hn         1 DK5       0.324500
     31 H4          -5.0200     0.3600    -1.3730 h1         1 DK5       0.069700
     32 HO4         -7.0240     0.9510    -0.4090 ho         1 DK5       0.521000
     33 H5          -4.6740    -0.9140     1.3840 h1         1 DK5       0.055700
     34 H6          -6.0480    -2.2110    -0.2190 h1         1 DK5       0.041200
     35 H6A         -4.7470    -2.1330    -1.4100 h1         1 DK5       0.041200
     36 HO6         -4.7410    -4.0560    -0.0050 ho         1 DK5       0.506000
     37 H7          -0.9060     0.0020     2.6200 h4         1 DK5       0.201000
     38 H8           1.5580    -0.2250     2.5950 ha         1 DK5       0.204000
     39 H13          5.0660     1.1000     1.4610 ha         1 DK5       0.124500
     40 H14          7.4600     1.2040     1.9210 ha         1 DK5       0.119000
     41 H15          9.0780     0.1200     0.3970 ha         1 DK5       0.117000
     42 H16          8.2650    -1.0720    -1.6150 ha         1 DK5       0.119000
     43 H17          5.8560    -1.1790    -2.0960 ha         1 DK5       0.124500
     44 N3           2.9870    -0.1070     0.3850 ns         1 DK5      -0.423400
@<TRIPOS>BOND
     1     1     2 1   
     2     1     3 1   
     3     1    10 1   
     4     1    26 1   
     5     2    13 1   
     6     2    16 1   
     7     3     5 1   
     8     3    27 1   
     9     3    28 1   
    10     4    15 2   
    11     4    16 1   
    12     5     6 1   
    13     5     7 1   
    14     5    29 1   
    15     7     8 1   
    16     7     9 1   
    17     7    31 1   
    18     8    32 1   
    19     9    10 1   
    20     9    11 1   
    21     9    33 1   
    22    11    12 1   
    23    11    34 1   
    24    11    35 1   
    25    12    36 1   
    26    13    14 2   
    27    13    37 1   
    28    14    15 1   
    29    14    38 1   
    30    15    44 1   
    31    16    17 2   
    32    18    19 2   
    33    18    20 1   
    34    18    44 1   
    35    20    21 ar  
    36    20    25 ar  
    37    21    22 ar  
    38    21    39 1   
    39    22    23 ar  
    40    22    40 1   
    41    23    24 ar  
    42    23    41 1   
    43    24    25 ar  
    44    24    42 1   
    45    25    43 1   
    46    30    44 1   
@<TRIPOS>SUBSTRUCTURE
     1 DK5         1 TEMP              0 ****  ****    0 ROOT
