@<TRIPOS>MOLECULE
DK5
   44    46     1     0     0
SMALL
No Charge or Current Charge


@<TRIPOS>ATOM
      1 C1          -2.5530     0.3510     0.7500 c6         1 DK5       0.344700
      2 N1          -1.0780     0.3290     0.6140 n          1 DK5      -0.309000
      3 C2          -3.1760     1.6410     0.1750 c6         1 DK5      -0.148400
      4 N2           0.9030    -0.0410    -0.6730 nc         1 DK5      -0.689100
      5 C3          -4.7130     1.5800     0.3060 c6         1 DK5       0.159300
      6 F3          -5.2570     2.6860    -0.3800 f          1 DK5      -0.262000
      7 C4          -5.2920     0.2740    -0.3120 c6         1 DK5       0.108300
      8 O4          -6.7210     0.1980    -0.1100 oh         1 DK5      -0.715000
      9 C5          -4.5560    -0.9520     0.3170 c6         1 DK5       0.180300
     10 O5          -3.1240    -0.8150     0.1270 os         1 DK5      -0.428000
     11 C6          -5.0080    -2.3110    -0.3130 c3         1 DK5       0.171600
     12 O6          -4.3050    -3.4540     0.2220 oh         1 DK5      -0.712000
     13 C7          -0.2880     0.5740     1.7310 cc         1 DK5       0.024600
     14 C8           1.0810     0.4990     1.6330 cd         1 DK5      -0.478600
     15 C9           1.6620     0.1720     0.3740 cd         1 DK5       0.628200
     16 C10         -0.4670     0.0270    -0.6230 c          1 DK5       0.714400
     17 O10         -1.0990    -0.1440    -1.6540 o          1 DK5      -0.504000
     18 C11          3.8770    -0.1730    -0.6840 c          1 DK5       0.620700
     19 O11          3.4900    -0.4290    -1.8160 o          1 DK5      -0.496100
     20 C12          5.3600    -0.1540    -0.3520 ca         1 DK5      -0.160600
     21 C13          5.8500     0.1390     0.9480 ca         1 DK5      -0.070500
     22 C14          7.2320     0.1450     1.2080 ca         1 DK5      -0.118000
     23 C15          8.1470    -0.1390     0.1840 ca         1 DK5      -0.085000
     24 C16          7.6800    -0.4310    -1.1060 ca         1 DK5      -0.118000
     25 C17          6.3000    -0.4380    -1.3720 ca         1 DK5      -0.070500
     26 H1          -2.7850     0.3080     1.8240 h2         1 DK5       0.029700
     27 H2          -2.7860     2.5180     0.7080 hc         1 DK5       0.090200
     28 H2A         -2.8950     1.7570    -0.8800 hc         1 DK5       0.090200
     29 H3          -5.0060     1.6630     1.3640 h1         1 DK5       0.060700
     30 HN3          3.4870     0.3020     1.2310 hn         1 DK5       0.324500
     31 H4          -5.0680     0.2800    -1.3900 h1         1 DK5       0.069700
     32 HO4         -7.1050     1.0350    -0.4680 ho         1 DK5       0.521000
     33 H5          -4.7660    -0.9890     1.3960 h1         1 DK5       0.055700
     34 H6          -6.0870    -2.4260    -0.1430 h1         1 DK5       0.041200
     35 H6A         -4.8550    -2.2490    -1.3990 h1         1 DK5       0.041200
     36 HO6         -4.6120    -4.2430    -0.2830 ho         1 DK5       0.506000
     37 H7          -0.8520     0.8080     2.6320 h4         1 DK5       0.201000
     38 H8           1.7030     0.6830     2.5020 ha         1 DK5       0.204000
     39 H13          5.1800     0.3660     1.7730 ha         1 DK5       0.124500
     40 H14          7.5940     0.3710     2.2090 ha         1 DK5       0.119000
     41 H15          9.2160    -0.1340     0.3890 ha         1 DK5       0.117000
     42 H16          8.3870    -0.6520    -1.9020 ha         1 DK5       0.119000
     43 H17          5.9650    -0.6680    -2.3820 ha         1 DK5       0.124500
     44 N3           3.0250     0.1120     0.3600 ns         1 DK5      -0.423400
@<TRIPOS>BOND
     1     1     2 1   
     2     1     3 1   
     3     1    10 1   
     4     1    26 1   
     5     2    13 1   
     6     2    16 1   
     7     3     5 1   
     8     3    27 1   
     9     3    28 1   
    10     4    15 2   
    11     4    16 1   
    12     5     6 1   
    13     5     7 1   
    14     5    29 1   
    15     7     8 1   
    16     7     9 1   
    17     7    31 1   
    18     8    32 1   
    19     9    10 1   
    20     9    11 1   
    21     9    33 1   
    22    11    12 1   
    23    11    34 1   
    24    11    35 1   
    25    12    36 1   
    26    13    14 2   
    27    13    37 1   
    28    14    15 1   
    29    14    38 1   
    30    15    44 1   
    31    16    17 2   
    32    18    19 2   
    33    18    20 1   
    34    18    44 1   
    35    20    21 ar  
    36    20    25 ar  
    37    21    22 ar  
    38    21    39 1   
    39    22    23 ar  
    40    22    40 1   
    41    23    24 ar  
    42    23    41 1   
    43    24    25 ar  
    44    24    42 1   
    45    25    43 1   
    46    30    44 1   
@<TRIPOS>SUBSTRUCTURE
     1 DK5         1 TEMP              0 ****  ****    0 ROOT
