@<TRIPOS>MOLECULE
DK6
   13    12     1     0     0
SMALL
abcg2


@<TRIPOS>ATOM
      1 O3         -46.9190    24.6120    22.3500 oh         1 DK6      -0.671500
      2 C4         -48.0110    25.3980    22.7440 c3         1 DK6       0.386300
      3 C5         -49.2770    24.7640    22.1960 c3         1 DK6      -0.058400
      4 O4         -48.1270    25.4790    24.1390 oh         1 DK6      -0.671500
      5 C6         -49.5530    23.3510    22.6950 c3         1 DK6      -0.079100
      6 H1         -46.1090    25.1190    22.4600 ho         1 DK6       0.438000
      7 H2         -50.1150    25.4180    22.4480 hc         1 DK6       0.047700
      8 H3         -49.2100    24.7670    21.1060 hc         1 DK6       0.047700
      9 H4         -47.4790    26.1070    24.4740 ho         1 DK6       0.438000
     10 H5         -50.4700    22.9670    22.2480 hc         1 DK6       0.038700
     11 H6         -48.7490    22.6640    22.4300 hc         1 DK6       0.038700
     12 H7         -49.6790    23.3190    23.7770 hc         1 DK6       0.038700
     13 H8         -47.9080    26.4090    22.3240 h2         1 DK6       0.006700
@<TRIPOS>BOND
     1     1     2 1   
     2     1     6 1   
     3     2     3 1   
     4     2     4 1   
     5     2    13 1   
     6     3     5 1   
     7     3     7 1   
     8     3     8 1   
     9     4     9 1   
    10     5    10 1   
    11     5    11 1   
    12     5    12 1   
@<TRIPOS>SUBSTRUCTURE
     1 DK6         1 TEMP              0 ****  ****    0 ROOT
