@<TRIPOS>MOLECULE
DK6
   13    12     1     0     0
SMALL
No Charge or Current Charge


@<TRIPOS>ATOM
      1 O3         -46.8590    24.6090    22.4350 oh         1 DK6      -0.671500
      2 C4         -47.9910    25.3890    22.7630 c3         1 DK6       0.386300
      3 C5         -49.2850    24.7500    22.1960 c3         1 DK6      -0.058400
      4 O4         -48.0400    25.4550    24.1740 oh         1 DK6      -0.671500
      5 C6         -49.5940    23.3140    22.6850 c3         1 DK6      -0.079100
      6 H1         -46.1040    25.2320    22.3910 ho         1 DK6       0.438000
      7 H2         -50.1330    25.3980    22.4480 hc         1 DK6       0.047700
      8 H3         -49.2180    24.7430    21.1010 hc         1 DK6       0.047700
      9 H4         -47.4880    26.2240    24.4300 ho         1 DK6       0.438000
     10 H5         -50.5240    22.9510    22.2300 hc         1 DK6       0.038700
     11 H6         -48.7890    22.6220    22.4080 hc         1 DK6       0.038700
     12 H7         -49.7160    23.2870    23.7740 hc         1 DK6       0.038700
     13 H8         -47.8670    26.4000    22.3560 h2         1 DK6       0.006700
@<TRIPOS>BOND
     1     1     2 1   
     2     1     6 1   
     3     2     3 1   
     4     2     4 1   
     5     2    13 1   
     6     3     5 1   
     7     3     7 1   
     8     3     8 1   
     9     4     9 1   
    10     5    10 1   
    11     5    11 1   
    12     5    12 1   
@<TRIPOS>SUBSTRUCTURE
     1 DK6         1 TEMP              0 ****  ****    0 ROOT
