@<TRIPOS>MOLECULE
DK7
   62    64     1     0     0
SMALL
abcg2


@<TRIPOS>ATOM
      1 C6           6.2640    -0.5550     0.6650 ca         1 DK7       0.197000
      2 C1           4.0720     0.3410     0.9910 ca         1 DK7      -0.015300
      3 C5           6.7370     0.6400     0.1540 ca         1 DK7      -0.203000
      4 C3           5.8300     1.6780     0.0770 ca         1 DK7       0.197000
      5 C2           4.5140     1.5570     0.4790 ca         1 DK7      -0.169000
      6 F4           6.2500     2.8540    -0.4110 f          1 DK7      -0.175000
      7 F7           7.1180    -1.5850     0.7590 f          1 DK7      -0.175000
      8 C8           4.9610    -0.7280     1.0850 ca         1 DK7      -0.169000
      9 C9           2.6440     0.1720     1.4210 c3         1 DK7      -0.042100
     10 C10          1.8190    -0.6200     0.3910 c3         1 DK7       0.105700
     11 C12          0.3320    -0.6870     0.7990 c3         1 DK7       0.149300
     12 O14          0.2320    -1.3060     2.0640 oh         1 DK7      -0.650000
     13 C15         -0.5500    -1.3810    -0.2550 c6         1 DK7       0.104500
     14 N17         -0.8730    -0.4510    -1.3280 n7         1 DK7      -0.859400
     15 C18         -1.7760    -1.0420    -2.2960 c6         1 DK7       0.137800
     16 C19         -3.0250    -1.6190    -1.6490 c6         1 DK7       0.345300
     17 O21         -3.7810    -0.5480    -1.1740 os         1 DK7      -0.489000
     18 C22         -5.0530    -0.8800    -0.6550 c3         1 DK7       0.167600
     19 C23         -5.7140     0.3720    -0.1070 c6         1 DK7      -0.064700
     20 C24         -7.1400     0.0510     0.3430 c6         1 DK7      -0.069900
     21 C25         -7.8420     1.2790     0.9120 c6         1 DK7      -0.073400
     22 C26         -7.0430     1.8950     2.0570 c6         1 DK7      -0.075400
     23 C27         -5.6190     2.2180     1.6190 c6         1 DK7      -0.073400
     24 C28         -4.9200     0.9900     1.0450 c6         1 DK7      -0.069900
     25 O29         -2.6710    -2.5140    -0.6260 os         1 DK7      -0.480000
     26 C30         -1.8170    -1.9670     0.3700 c6         1 DK7       0.128600
     27 N31          2.0340    -0.1690    -0.9650 ns         1 DK7      -0.487900
     28 C32          1.6720     1.0360    -1.4390 c          1 DK7       0.620100
     29 C33          1.7760     1.1840    -2.9350 c3         1 DK7      -0.178100
     30 O34          1.2820     1.9480    -0.7220 o          1 DK7      -0.621100
     31 H1           7.7650     0.7560    -0.1640 ha         1 DK7       0.149000
     32 H2           3.8370     2.3960     0.3920 ha         1 DK7       0.140000
     33 H3           4.6410    -1.6830     1.4820 ha         1 DK7       0.140000
     34 H4           2.6150    -0.3660     2.3690 hc         1 DK7       0.073700
     35 H5           2.1910     1.1480     1.5930 hc         1 DK7       0.073700
     36 H6           2.1880    -1.6510     0.3970 h1         1 DK7       0.036700
     37 H7          -0.0500     0.3270     0.9490 h1         1 DK7       0.102700
     38 H8           0.6220    -2.1870     2.0150 ho         1 DK7       0.437000
     39 H9           0.0160    -2.2110    -0.7050 h1         1 DK7       0.058700
     40 H10         -1.2990     0.3830    -0.9360 hn         1 DK7       0.436000
     41 H12         -2.0450    -0.2960    -3.0460 h1         1 DK7       0.067700
     42 H13         -1.2540    -1.8480    -2.8210 h1         1 DK7       0.067700
     43 H14         -3.6040    -2.2180    -2.3660 h2         1 DK7       0.070700
     44 H15         -5.6780    -1.3200    -1.4460 h1         1 DK7       0.030200
     45 H16         -4.9720    -1.6260     0.1450 h1         1 DK7       0.030200
     46 H17         -5.7770     1.1110    -0.9190 hc         1 DK7       0.057700
     47 H18         -7.7150    -0.3560    -0.4940 hc         1 DK7       0.040700
     48 H19         -7.1070    -0.7330     1.1090 hc         1 DK7       0.040700
     49 H20         -7.9650     2.0240     0.1180 hc         1 DK7       0.039450
     50 H21         -8.8470     1.0140     1.2490 hc         1 DK7       0.039450
     51 H22         -7.5420     2.7950     2.4240 hc         1 DK7       0.038700
     52 H23         -7.0130     1.1900     2.8960 hc         1 DK7       0.038700
     53 H24         -5.6450     3.0070     0.8590 hc         1 DK7       0.039450
     54 H25         -5.0430     2.6170     2.4580 hc         1 DK7       0.039450
     55 H26         -4.8030     0.2360     1.8350 hc         1 DK7       0.040700
     56 H27         -3.9130     1.2520     0.7140 hc         1 DK7       0.040700
     57 H28         -1.5890    -2.7930     1.0430 h1         1 DK7       0.061200
     58 H29         -2.3440    -1.2020     0.9550 h1         1 DK7       0.061200
     59 H30          2.2600    -0.8790    -1.6400 hn         1 DK7       0.312500
     60 H31          0.7980     0.9660    -3.3670 hc         1 DK7       0.060367
     61 H32          2.0430     2.2060    -3.1960 hc         1 DK7       0.060367
     62 H33          2.4990     0.5050    -3.3830 hc         1 DK7       0.060367
@<TRIPOS>BOND
     1     1     3 ar  
     2     1     7 1   
     3     1     8 ar  
     4     2     5 ar  
     5     2     8 ar  
     6     2     9 1   
     7     3     4 ar  
     8     3    31 1   
     9     4     5 ar  
    10     4     6 1   
    11     5    32 1   
    12     8    33 1   
    13     9    10 1   
    14     9    34 1   
    15     9    35 1   
    16    10    11 1   
    17    10    27 1   
    18    10    36 1   
    19    11    12 1   
    20    11    13 1   
    21    11    37 1   
    22    12    38 1   
    23    13    14 1   
    24    13    26 1   
    25    13    39 1   
    26    14    15 1   
    27    14    40 1   
    28    15    16 1   
    29    15    41 1   
    30    15    42 1   
    31    16    17 1   
    32    16    25 1   
    33    16    43 1   
    34    17    18 1   
    35    18    19 1   
    36    18    44 1   
    37    18    45 1   
    38    19    20 1   
    39    19    24 1   
    40    19    46 1   
    41    20    21 1   
    42    20    47 1   
    43    20    48 1   
    44    21    22 1   
    45    21    49 1   
    46    21    50 1   
    47    22    23 1   
    48    22    51 1   
    49    22    52 1   
    50    23    24 1   
    51    23    53 1   
    52    23    54 1   
    53    24    55 1   
    54    24    56 1   
    55    25    26 1   
    56    26    57 1   
    57    26    58 1   
    58    27    28 1   
    59    27    59 1   
    60    28    29 1   
    61    28    30 2   
    62    29    60 1   
    63    29    61 1   
    64    29    62 1   
@<TRIPOS>SUBSTRUCTURE
     1 DK7         1 TEMP              0 ****  ****    0 ROOT
