@<TRIPOS>MOLECULE
DK7
   62    64     1     0     0
SMALL
No Charge or Current Charge


@<TRIPOS>ATOM
      1 C6           6.3940    -0.5270     0.0820 ca         1 DK7       0.197000
      2 C1           4.2250     0.2280     0.9000 ca         1 DK7      -0.015300
      3 C5           6.7920     0.8000    -0.1280 ca         1 DK7      -0.203000
      4 C3           5.9050     1.8410     0.1770 ca         1 DK7       0.197000
      5 C2           4.6290     1.5610     0.6900 ca         1 DK7      -0.169000
      6 F4           6.2810     3.1220    -0.0240 f          1 DK7      -0.175000
      7 F7           7.2440    -1.5350    -0.2110 f          1 DK7      -0.175000
      8 C8           5.1190    -0.8160     0.5930 ca         1 DK7      -0.169000
      9 C9           2.8340    -0.0850     1.4450 c3         1 DK7      -0.042100
     10 C10          1.8850    -0.7150     0.3820 c3         1 DK7       0.105700
     11 C12          0.4170    -0.9390     0.9060 c3         1 DK7       0.149300
     12 O14          0.4760    -1.6340     2.1710 oh         1 DK7      -0.650000
     13 C15         -0.5610    -1.6890    -0.0870 c6         1 DK7       0.104500
     14 N17         -0.8290    -0.8920    -1.3280 n7         1 DK7      -0.859400
     15 C18         -1.7960    -1.5880    -2.2340 c6         1 DK7       0.137800
     16 C19         -3.1260    -1.9790    -1.5050 c6         1 DK7       0.345300
     17 O21         -3.8680    -0.8000    -1.1280 os         1 DK7      -0.489000
     18 C22         -5.1780    -1.0200    -0.5780 c3         1 DK7       0.167600
     19 C23         -5.7960     0.3470    -0.1690 c6         1 DK7      -0.064700
     20 C24         -7.2720     0.1760     0.2880 c6         1 DK7      -0.069900
     21 C25         -7.9040     1.5310     0.6930 c6         1 DK7      -0.073400
     22 C26         -7.0710     2.2310     1.7940 c6         1 DK7      -0.075400
     23 C27         -5.5990     2.4110     1.3480 c6         1 DK7      -0.073400
     24 C28         -4.9660     1.0570     0.9410 c6         1 DK7      -0.069900
     25 O29         -2.8130    -2.7450    -0.3180 os         1 DK7      -0.480000
     26 C30         -1.9190    -2.0670     0.6040 c6         1 DK7       0.128600
     27 N31          1.9550     0.0360    -0.8830 ns         1 DK7      -0.487900
     28 C32          1.5490     1.3380    -1.0760 c          1 DK7       0.620100
     29 C33          1.7100     1.8420    -2.5040 c3         1 DK7      -0.178100
     30 O34          1.1000     2.0410    -0.1830 o          1 DK7      -0.621100
     31 H1           7.7790     1.0200    -0.5250 ha         1 DK7       0.149000
     32 H2           3.9540     2.3830     0.9170 ha         1 DK7       0.140000
     33 H3           4.8290    -1.8520     0.7470 ha         1 DK7       0.140000
     34 H4           2.9340    -0.7690     2.2960 hc         1 DK7       0.073700
     35 H5           2.3720     0.8230     1.8480 hc         1 DK7       0.073700
     36 H6           2.2900    -1.7090     0.1520 h1         1 DK7       0.036700
     37 H7          -0.0200     0.0540     1.0780 h1         1 DK7       0.102700
     38 H8           0.8970    -2.5070     2.0100 ho         1 DK7       0.437000
     39 H9          -0.0650    -2.6270    -0.3810 h1         1 DK7       0.058700
     40 H10         -1.2800    -0.0130    -1.0430 hn         1 DK7       0.436000
     41 H12         -2.0320    -0.9450    -3.0940 h1         1 DK7       0.067700
     42 H13         -1.3340    -2.5040    -2.6330 h1         1 DK7       0.067700
     43 H14         -3.7380    -2.5900    -2.1870 h2         1 DK7       0.070700
     44 H15         -5.8270    -1.5010    -1.3210 h1         1 DK7       0.030200
     45 H16         -5.1300    -1.6670     0.3080 h1         1 DK7       0.030200
     46 H17         -5.7840     0.9730    -1.0730 hc         1 DK7       0.057700
     47 H18         -7.8650    -0.2760    -0.5200 hc         1 DK7       0.040700
     48 H19         -7.3220    -0.5200     1.1370 hc         1 DK7       0.040700
     49 H20         -7.9770     2.1840    -0.1880 hc         1 DK7       0.039450
     50 H21         -8.9310     1.3720     1.0480 hc         1 DK7       0.039450
     51 H22         -7.5110     3.2090     2.0300 hc         1 DK7       0.038700
     52 H23         -7.1080     1.6390     2.7190 hc         1 DK7       0.038700
     53 H24         -5.5520     3.1100     0.5020 hc         1 DK7       0.039450
     54 H25         -5.0170     2.8650     2.1620 hc         1 DK7       0.039450
     55 H26         -4.8900     0.4060     1.8240 hc         1 DK7       0.040700
     56 H27         -3.9370     1.2300     0.5950 hc         1 DK7       0.040700
     57 H28         -1.7370    -2.7360     1.4580 h1         1 DK7       0.061200
     58 H29         -2.4100    -1.1630     0.9920 h1         1 DK7       0.061200
     59 H30          2.2730    -0.4560    -1.7080 hn         1 DK7       0.312500
     60 H31          1.1750     1.1680    -3.1810 hc         1 DK7       0.060367
     61 H32          1.3830     2.8810    -2.6240 hc         1 DK7       0.060367
     62 H33          2.7520     1.7070    -2.8140 hc         1 DK7       0.060367
@<TRIPOS>BOND
     1     1     3 ar  
     2     1     7 1   
     3     1     8 ar  
     4     2     5 ar  
     5     2     8 ar  
     6     2     9 1   
     7     3     4 ar  
     8     3    31 1   
     9     4     5 ar  
    10     4     6 1   
    11     5    32 1   
    12     8    33 1   
    13     9    10 1   
    14     9    34 1   
    15     9    35 1   
    16    10    11 1   
    17    10    27 1   
    18    10    36 1   
    19    11    12 1   
    20    11    13 1   
    21    11    37 1   
    22    12    38 1   
    23    13    14 1   
    24    13    26 1   
    25    13    39 1   
    26    14    15 1   
    27    14    40 1   
    28    15    16 1   
    29    15    41 1   
    30    15    42 1   
    31    16    17 1   
    32    16    25 1   
    33    16    43 1   
    34    17    18 1   
    35    18    19 1   
    36    18    44 1   
    37    18    45 1   
    38    19    20 1   
    39    19    24 1   
    40    19    46 1   
    41    20    21 1   
    42    20    47 1   
    43    20    48 1   
    44    21    22 1   
    45    21    49 1   
    46    21    50 1   
    47    22    23 1   
    48    22    51 1   
    49    22    52 1   
    50    23    24 1   
    51    23    53 1   
    52    23    54 1   
    53    24    55 1   
    54    24    56 1   
    55    25    26 1   
    56    26    57 1   
    57    26    58 1   
    58    27    28 1   
    59    27    59 1   
    60    28    29 1   
    61    28    30 2   
    62    29    60 1   
    63    29    61 1   
    64    29    62 1   
@<TRIPOS>SUBSTRUCTURE
     1 DK7         1 TEMP              0 ****  ****    0 ROOT
