@<TRIPOS>MOLECULE
DK8
  122   123     1     0     0
SMALL
No Charge or Current Charge


@<TRIPOS>ATOM
      1 C1         106.5790    83.2930    93.1450 c          1 DK8       0.573900
      2 C10        107.3380    84.3300    92.3520 ca         1 DK8      -0.135600
      3 C11        102.9430    84.7050    92.8030 c3         1 DK8       0.002000
      4 C12        102.6200    85.5190    94.0420 c2         1 DK8      -0.230200
      5 C13        101.4510    86.1050    94.3550 c2         1 DK8      -0.101400
      6 C14        100.1860    86.0340    93.5120 c3         1 DK8      -0.058900
      7 C15        101.2780    86.9020    95.6390 c3         1 DK8      -0.045200
      8 C16        101.2500    88.4270    95.4080 c3         1 DK8      -0.033200
      9 C17        101.3250    89.2060    96.7080 c2         1 DK8      -0.231200
     10 C18        100.3040    89.5410    97.5240 c2         1 DK8      -0.102400
     11 C19         98.8530    89.1410    97.2900 c3         1 DK8      -0.057900
     12 C2         105.1250    83.4850    93.2370 cc         1 DK8      -0.252200
     13 C20        100.4490    90.3570    98.8110 c3         1 DK8      -0.040200
     14 C21        101.7890    91.1040    99.0240 c3         1 DK8      -0.036200
     15 C22        102.0480    92.1860    97.9840 c2         1 DK8      -0.216200
     16 C23        102.8460    93.2650    98.1010 c2         1 DK8      -0.113400
     17 C24        102.9680    94.2900    96.9840 c3         1 DK8      -0.053900
     18 C25        103.6830    93.6140    99.3320 c3         1 DK8      -0.036200
     19 C26        105.2110    93.5660    99.0930 c3         1 DK8      -0.034200
     20 C27        105.6990    92.2200    98.5850 c2         1 DK8      -0.213200
     21 C28        106.8760    91.9560    97.9880 c2         1 DK8      -0.115400
     22 C29        107.9740    92.9830    97.7420 c3         1 DK8      -0.052900
     23 C3         104.4390    84.5330    92.6460 cd         1 DK8      -0.115400
     24 C30        107.2460    90.5550    97.5240 c3         1 DK8      -0.037200
     25 C31        107.3360    90.4060    95.9890 c3         1 DK8      -0.037200
     26 C32        107.5160    88.9530    95.5900 c2         1 DK8      -0.225200
     27 C33        106.5530    88.0490    95.3310 c2         1 DK8      -0.109400
     28 C34        105.0540    88.3230    95.3640 c3         1 DK8      -0.058900
     29 C35        106.8780    86.5910    95.0400 c3         1 DK8      -0.036200
     30 C36        107.4230    85.8320    96.2730 c3         1 DK8      -0.033200
     31 C37        106.6680    86.1550    97.5520 c2         1 DK8      -0.214200
     32 C38        105.5020    85.6360    97.9790 c2         1 DK8      -0.120400
     33 C39        104.6930    84.5760    97.2470 c3         1 DK8      -0.055900
     34 C4         105.1650    85.5730    91.8520 c          1 DK8       0.573900
     35 C40        104.8410    86.1130    99.2620 c3         1 DK8      -0.035200
     36 C41        103.9880    87.3820    99.0450 c3         1 DK8      -0.040200
     37 C42        103.2420    87.8010   100.2980 c2         1 DK8      -0.222200
     38 C43        101.9920    87.4460   100.6640 c2         1 DK8      -0.112400
     39 C44        101.2840    87.9310   101.9320 c3         1 DK8      -0.039200
     40 C45        101.1000    86.5000    99.8690 c3         1 DK8      -0.054900
     41 C46        101.9800    89.0700   102.7120 c3         1 DK8      -0.037200
     42 C47        101.1720    89.5150   103.9190 c2         1 DK8      -0.224200
     43 C48        100.2170    90.4630   103.9650 c2         1 DK8      -0.112400
     44 C49         99.5030    90.8340   105.2520 c3         1 DK8      -0.056400
     45 C5         106.6650    85.4170    91.7330 ca         1 DK8      -0.136600
     46 C50         99.7220    91.2740   102.7770 c3         1 DK8      -0.056400
     47 C6         107.4150    86.3750    91.0120 ca         1 DK8      -0.066000
     48 C7         108.8090    86.2580    90.9030 ca         1 DK8      -0.098000
     49 C8         109.4730    85.1850    91.5130 ca         1 DK8      -0.097000
     50 C9         108.7430    84.2260    92.2320 ca         1 DK8      -0.065000
     51 O1         107.1380    82.3480    93.6860 o          1 DK8      -0.505100
     52 O4         104.5900    86.5170    91.3210 o          1 DK8      -0.505100
     53 H1         102.5040    85.1640    91.9090 hc         1 DK8       0.063200
     54 H2         102.4700    83.7180    92.8870 hc         1 DK8       0.063200
     55 H3         103.4660    85.6270    94.7200 ha         1 DK8       0.184000
     56 H4          99.3450    85.6440    94.0980 hc         1 DK8       0.041033
     57 H5          99.9010    87.0240    93.1390 hc         1 DK8       0.041033
     58 H6         100.2970    85.3790    92.6410 hc         1 DK8       0.041033
     59 H7         100.3690    86.5910    96.1680 hc         1 DK8       0.049700
     60 H8         102.1060    86.6800    96.3190 hc         1 DK8       0.049700
     61 H9         102.0950    88.7070    94.7680 hc         1 DK8       0.044200
     62 H10        100.3500    88.6970    94.8450 hc         1 DK8       0.044200
     63 H11        102.3430    89.5120    96.9470 ha         1 DK8       0.173000
     64 H12         98.4560    88.5920    98.1520 hc         1 DK8       0.038033
     65 H13         98.2220    90.0250    97.1400 hc         1 DK8       0.038033
     66 H14         98.7210    88.4960    96.4150 hc         1 DK8       0.038033
     67 H15        104.6090    82.7320    93.8230 ha         1 DK8       0.203000
     68 H16         99.6510    91.1090    98.8580 hc         1 DK8       0.047700
     69 H17        100.2830    89.6970    99.6690 hc         1 DK8       0.047700
     70 H18        102.6110    90.3800    99.0360 hc         1 DK8       0.046700
     71 H19        101.7610    91.5440   100.0260 hc         1 DK8       0.046700
     72 H20        101.4890    92.0410    97.0580 ha         1 DK8       0.170000
     73 H21        102.7260    95.2980    97.3420 hc         1 DK8       0.037367
     74 H22        103.9830    94.3150    96.5700 hc         1 DK8       0.037367
     75 H23        102.2880    94.0680    96.1530 hc         1 DK8       0.037367
     76 H24        103.4170    94.6180    99.6870 hc         1 DK8       0.042200
     77 H25        103.4610    92.9440   100.1680 hc         1 DK8       0.042200
     78 H26        105.4890    94.3660    98.3970 hc         1 DK8       0.043700
     79 H27        105.7130    93.8000   100.0400 hc         1 DK8       0.043700
     80 H28        104.9810    91.4110    98.7310 ha         1 DK8       0.165000
     81 H29        108.1170    93.1640    96.6700 hc         1 DK8       0.037033
     82 H30        107.7580    93.9510    98.2070 hc         1 DK8       0.037033
     83 H31        108.9310    92.6410    98.1530 hc         1 DK8       0.037033
     84 H32        106.5010    89.8360    97.8890 hc         1 DK8       0.043200
     85 H33        108.1990    90.2460    97.9710 hc         1 DK8       0.043200
     86 H34        108.1760    90.9990    95.6080 hc         1 DK8       0.046200
     87 H35        106.4360    90.8330    95.5320 hc         1 DK8       0.046200
     88 H36        108.5620    88.6430    95.5600 ha         1 DK8       0.167000
     89 H37        104.8080    89.3360    95.6960 hc         1 DK8       0.038367
     90 H38        104.6120    88.1860    94.3700 hc         1 DK8       0.038367
     91 H39        104.5440    87.6350    96.0470 hc         1 DK8       0.038367
     92 H40        105.9930    86.0660    94.6660 hc         1 DK8       0.048700
     93 H41        107.6260    86.5310    94.2410 hc         1 DK8       0.048700
     94 H42        107.4060    84.7550    96.0670 hc         1 DK8       0.043700
     95 H43        108.4800    86.0910    96.4070 hc         1 DK8       0.043700
     96 H44        107.1550    86.9280    98.1470 ha         1 DK8       0.167000
     97 H45        104.6280    83.6560    97.8400 hc         1 DK8       0.039033
     98 H46        103.6690    84.9200    97.0620 hc         1 DK8       0.039033
     99 H47        105.1260    84.3070    96.2780 hc         1 DK8       0.039033
    100 H48        105.6070    86.3440   100.0120 hc         1 DK8       0.043700
    101 H49        104.2210    85.3210    99.7000 hc         1 DK8       0.043700
    102 H50        103.2930    87.2140    98.2180 hc         1 DK8       0.047200
    103 H51        104.6410    88.1990    98.7130 hc         1 DK8       0.047200
    104 H52        103.8300    88.4780   100.9170 ha         1 DK8       0.165000
    105 H53        100.2770    88.2800   101.6710 hc         1 DK8       0.045700
    106 H54        101.1390    87.0830   102.6130 hc         1 DK8       0.045700
    107 H55        100.7430    85.6770   100.5010 hc         1 DK8       0.038700
    108 H56        100.2190    87.0240    99.4800 hc         1 DK8       0.038700
    109 H57        101.6080    86.0400    99.0160 hc         1 DK8       0.038700
    110 H58        102.9670    88.7290   103.0480 hc         1 DK8       0.045700
    111 H59        102.1630    89.9130   102.0360 hc         1 DK8       0.045700
    112 H60        101.4490    88.9870   104.8340 ha         1 DK8       0.166000
    113 H61         99.8670    90.2470   106.1040 hc         1 DK8       0.038867
    114 H62         99.6530    91.8930   105.4950 hc         1 DK8       0.038867
    115 H63         98.4240    90.6590   105.1700 hc         1 DK8       0.038867
    116 H64         98.6370    91.1660   102.6540 hc         1 DK8       0.038867
    117 H65         99.9360    92.3410   102.9140 hc         1 DK8       0.038867
    118 H66        100.1800    90.9670   101.8330 hc         1 DK8       0.038867
    119 H67        106.9190    87.2180    90.5350 ha         1 DK8       0.137000
    120 H68        109.3750    87.0020    90.3470 ha         1 DK8       0.122000
    121 H69        110.5540    85.0950    91.4290 ha         1 DK8       0.122000
    122 H70        109.2760    83.4010    92.7020 ha         1 DK8       0.138000
@<TRIPOS>BOND
     1     1     2 1   
     2     1    12 1   
     3     1    51 2   
     4     2    45 ar  
     5     2    50 ar  
     6     3     4 1   
     7     3    23 1   
     8     3    53 1   
     9     3    54 1   
    10     4     5 2   
    11     4    55 1   
    12     5     6 1   
    13     5     7 1   
    14     6    56 1   
    15     6    57 1   
    16     6    58 1   
    17     7     8 1   
    18     7    59 1   
    19     7    60 1   
    20     8     9 1   
    21     8    61 1   
    22     8    62 1   
    23     9    10 2   
    24     9    63 1   
    25    10    11 1   
    26    10    13 1   
    27    11    64 1   
    28    11    65 1   
    29    11    66 1   
    30    12    23 2   
    31    12    67 1   
    32    13    14 1   
    33    13    68 1   
    34    13    69 1   
    35    14    15 1   
    36    14    70 1   
    37    14    71 1   
    38    15    16 2   
    39    15    72 1   
    40    16    17 1   
    41    16    18 1   
    42    17    73 1   
    43    17    74 1   
    44    17    75 1   
    45    18    19 1   
    46    18    76 1   
    47    18    77 1   
    48    19    20 1   
    49    19    78 1   
    50    19    79 1   
    51    20    21 2   
    52    20    80 1   
    53    21    22 1   
    54    21    24 1   
    55    22    81 1   
    56    22    82 1   
    57    22    83 1   
    58    23    34 1   
    59    24    25 1   
    60    24    84 1   
    61    24    85 1   
    62    25    26 1   
    63    25    86 1   
    64    25    87 1   
    65    26    27 2   
    66    26    88 1   
    67    27    28 1   
    68    27    29 1   
    69    28    89 1   
    70    28    90 1   
    71    28    91 1   
    72    29    30 1   
    73    29    92 1   
    74    29    93 1   
    75    30    31 1   
    76    30    94 1   
    77    30    95 1   
    78    31    32 2   
    79    31    96 1   
    80    32    33 1   
    81    32    35 1   
    82    33    97 1   
    83    33    98 1   
    84    33    99 1   
    85    34    45 1   
    86    34    52 2   
    87    35    36 1   
    88    35   100 1   
    89    35   101 1   
    90    36    37 1   
    91    36   102 1   
    92    36   103 1   
    93    37    38 2   
    94    37   104 1   
    95    38    39 1   
    96    38    40 1   
    97    39    41 1   
    98    39   105 1   
    99    39   106 1   
   100    40   107 1   
   101    40   108 1   
   102    40   109 1   
   103    41    42 1   
   104    41   110 1   
   105    41   111 1   
   106    42    43 2   
   107    42   112 1   
   108    43    44 1   
   109    43    46 1   
   110    44   113 1   
   111    44   114 1   
   112    44   115 1   
   113    45    47 ar  
   114    46   116 1   
   115    46   117 1   
   116    46   118 1   
   117    47    48 ar  
   118    47   119 1   
   119    48    49 ar  
   120    48   120 1   
   121    49    50 ar  
   122    49   121 1   
   123    50   122 1   
@<TRIPOS>SUBSTRUCTURE
     1 DK8         1 TEMP              0 ****  ****    0 ROOT
