@<TRIPOS>MOLECULE
DK8
  122   123     1     0     0
SMALL
abcg2


@<TRIPOS>ATOM
      1 C1         103.8670    81.9670    92.1180 c          1 DK8       0.573900
      2 C10        105.1700    81.8180    92.8090 ca         1 DK8      -0.135600
      3 C11        103.6500    85.8120    91.7900 c3         1 DK8       0.002000
      4 C12        103.4650    86.5340    93.1010 c2         1 DK8      -0.230200
      5 C13        102.4030    86.4450    93.9050 c2         1 DK8      -0.101400
      6 C14        101.1900    85.6160    93.6090 c3         1 DK8      -0.058900
      7 C15        102.3860    87.1860    95.2140 c3         1 DK8      -0.045200
      8 C16        101.4350    88.3920    95.2330 c3         1 DK8      -0.033200
      9 C17        101.5470    89.1470    96.5210 c2         1 DK8      -0.231200
     10 C18        100.6440    89.2460    97.5000 c2         1 DK8      -0.102400
     11 C19         99.2890    88.6000    97.4650 c3         1 DK8      -0.057900
     12 C2         103.4190    83.3290    91.7960 cc         1 DK8      -0.252200
     13 C20        100.8980    89.9960    98.7840 c3         1 DK8      -0.040200
     14 C21        102.1490    90.8670    98.8790 c3         1 DK8      -0.036200
     15 C22        102.0700    92.1180    98.0570 c2         1 DK8      -0.216200
     16 C23        102.2970    93.3750    98.4480 c2         1 DK8      -0.113400
     17 C24        102.2120    94.5070    97.4650 c3         1 DK8      -0.053900
     18 C25        102.6960    93.7770    99.8410 c3         1 DK8      -0.036200
     19 C26        104.1560    94.2630    99.9240 c3         1 DK8      -0.034200
     20 C27        105.0870    93.2470    99.3440 c2         1 DK8      -0.213200
     21 C28        105.9770    93.4040    98.3620 c2         1 DK8      -0.115400
     22 C29        106.2840    94.7130    97.6930 c3         1 DK8      -0.052900
     23 C3         104.1510    84.4230    92.0440 cd         1 DK8      -0.115400
     24 C30        106.7300    92.2140    97.8290 c3         1 DK8      -0.037200
     25 C31        106.4890    91.9820    96.3300 c3         1 DK8      -0.037200
     26 C32        107.0110    90.6460    95.8910 c2         1 DK8      -0.225200
     27 C33        106.4690    89.8220    94.9920 c2         1 DK8      -0.109400
     28 C34        105.2340    90.1480    94.2000 c3         1 DK8      -0.058900
     29 C35        107.0460    88.4680    94.6590 c3         1 DK8      -0.036200
     30 C36        108.0040    87.8430    95.6780 c3         1 DK8      -0.033200
     31 C37        107.3590    87.6560    97.0220 c2         1 DK8      -0.214200
     32 C38        106.4740    86.7120    97.3530 c2         1 DK8      -0.120400
     33 C39        106.0420    85.6060    96.4350 c3         1 DK8      -0.055900
     34 C4         105.5200    84.2860    92.6120 c          1 DK8       0.573900
     35 C40        105.7650    86.7820    98.6790 c3         1 DK8      -0.035200
     36 C41        104.3670    87.4000    98.5250 c3         1 DK8      -0.040200
     37 C42        103.6800    87.6230    99.8340 c2         1 DK8      -0.222200
     38 C43        102.5570    87.0550   100.2800 c2         1 DK8      -0.112400
     39 C44        101.9430    87.4090   101.6100 c3         1 DK8      -0.039200
     40 C45        101.7630    86.0350    99.5160 c3         1 DK8      -0.054900
     41 C46        102.6280    88.5070   102.4220 c3         1 DK8      -0.037200
     42 C47        101.9160    88.7510   103.7180 c2         1 DK8      -0.224200
     43 C48        101.0500    89.7300   103.9930 c2         1 DK8      -0.112400
     44 C49        100.3970    89.8290   105.3400 c3         1 DK8      -0.056400
     45 C5         105.9630    82.9420    93.0550 ca         1 DK8      -0.136600
     46 C50        100.6390    90.7990   103.0230 c3         1 DK8      -0.056400
     47 C6         107.1790    82.8000    93.7140 ca         1 DK8      -0.066000
     48 C7         107.5990    81.5460    94.1290 ca         1 DK8      -0.098000
     49 C8         106.8140    80.4280    93.8780 ca         1 DK8      -0.097000
     50 C9         105.6030    80.5620    93.2160 ca         1 DK8      -0.065000
     51 O1         103.1770    81.0060    91.8420 o          1 DK8      -0.505100
     52 O4         106.2500    85.2510    92.6950 o          1 DK8      -0.505100
     53 H1         104.3630    86.3580    91.1700 hc         1 DK8       0.063200
     54 H2         102.7180    85.7570    91.2260 hc         1 DK8       0.063200
     55 H3         104.3030    87.1410    93.4270 ha         1 DK8       0.184000
     56 H4         101.1570    84.7490    94.2740 hc         1 DK8       0.041033
     57 H5         100.2720    86.1790    93.7880 hc         1 DK8       0.041033
     58 H6         101.1550    85.2460    92.5860 hc         1 DK8       0.041033
     59 H7         102.0940    86.4990    96.0180 hc         1 DK8       0.049700
     60 H8         103.3960    87.5280    95.4550 hc         1 DK8       0.049700
     61 H9         101.7070    89.0560    94.4060 hc         1 DK8       0.044200
     62 H10        100.4120    88.0680    95.0420 hc         1 DK8       0.044200
     63 H11        102.5070    89.6410    96.6550 ha         1 DK8       0.173000
     64 H12         99.1370    87.9900    98.3600 hc         1 DK8       0.038033
     65 H13         98.5010    89.3570    97.4720 hc         1 DK8       0.038033
     66 H14         99.1270    87.9600    96.6000 hc         1 DK8       0.038033
     67 H15        102.4350    83.4140    91.3480 ha         1 DK8       0.203000
     68 H16        100.0200    90.6140    99.0050 hc         1 DK8       0.047700
     69 H17        100.9350    89.2560    99.5920 hc         1 DK8       0.047700
     70 H18        103.0270    90.2810    98.5830 hc         1 DK8       0.046700
     71 H19        102.3110    91.1030    99.9310 hc         1 DK8       0.046700
     72 H20        101.8040    91.9660    97.0130 ha         1 DK8       0.170000
     73 H21        101.5230    95.2820    97.8110 hc         1 DK8       0.037367
     74 H22        103.1830    94.9930    97.3350 hc         1 DK8       0.037367
     75 H23        101.8790    94.1690    96.4840 hc         1 DK8       0.037367
     76 H24        102.0420    94.5830   100.1890 hc         1 DK8       0.042200
     77 H25        102.5640    92.9510   100.5420 hc         1 DK8       0.042200
     78 H26        104.2550    95.2300    99.4290 hc         1 DK8       0.043700
     79 H27        104.3910    94.4370   100.9790 hc         1 DK8       0.043700
     80 H28        104.9670    92.2440    99.7520 ha         1 DK8       0.165000
     81 H29        105.9410    94.7220    96.6560 hc         1 DK8       0.037033
     82 H30        105.8320    95.5660    98.1940 hc         1 DK8       0.037033
     83 H31        107.3630    94.8800    97.6630 hc         1 DK8       0.037033
     84 H32        106.4340    91.3170    98.3810 hc         1 DK8       0.043200
     85 H33        107.8070    92.3410    97.9920 hc         1 DK8       0.043200
     86 H34        106.9730    92.7830    95.7600 hc         1 DK8       0.046200
     87 H35        105.4190    92.0690    96.1250 hc         1 DK8       0.046200
     88 H36        107.9240    90.3350    96.3910 ha         1 DK8       0.167000
     89 H37        104.8940    91.1740    94.3240 hc         1 DK8       0.038367
     90 H38        105.4110    89.9840    93.1340 hc         1 DK8       0.038367
     91 H39        104.4090    89.4850    94.4780 hc         1 DK8       0.038367
     92 H40        106.2110    87.7730    94.5210 hc         1 DK8       0.048700
     93 H41        107.5350    88.5210    93.6790 hc         1 DK8       0.048700
     94 H42        108.3420    86.8870    95.2710 hc         1 DK8       0.043700
     95 H43        108.9030    88.4550    95.7800 hc         1 DK8       0.043700
     96 H44        107.5820    88.4070    97.7740 ha         1 DK8       0.167000
     97 H45        106.0720    84.6440    96.9510 hc         1 DK8       0.039033
     98 H46        105.0100    85.7450    96.0990 hc         1 DK8       0.039033
     99 H47        106.6630    85.5280    95.5450 hc         1 DK8       0.039033
    100 H48        106.3440    87.3880    99.3820 hc         1 DK8       0.043700
    101 H49        105.6680    85.7870    99.1230 hc         1 DK8       0.043700
    102 H50        103.7650    86.7870    97.8540 hc         1 DK8       0.047200
    103 H51        104.4790    88.3690    98.0230 hc         1 DK8       0.047200
    104 H52        104.1750    88.3500   100.4720 ha         1 DK8       0.165000
    105 H53        100.9020    87.7080   101.4330 hc         1 DK8       0.045700
    106 H54        101.8720    86.4980   102.2160 hc         1 DK8       0.045700
    107 H55        101.6220    85.1320   100.1150 hc         1 DK8       0.038700
    108 H56        100.7630    86.4170    99.2930 hc         1 DK8       0.038700
    109 H57        102.2220    85.7400    98.5750 hc         1 DK8       0.038700
    110 H58        103.6610    88.2140   102.6340 hc         1 DK8       0.045700
    111 H59        102.6860    89.4200   101.8270 hc         1 DK8       0.045700
    112 H60        102.1140    88.0220   104.5000 ha         1 DK8       0.166000
    113 H61        100.7200    89.0360   106.0140 hc         1 DK8       0.038867
    114 H62        100.6220    90.7890   105.8130 hc         1 DK8       0.038867
    115 H63         99.3080    89.7770   105.2530 hc         1 DK8       0.038867
    116 H64         99.5580    90.7680   102.8600 hc         1 DK8       0.038867
    117 H65        100.8600    91.7910   103.4260 hc         1 DK8       0.038867
    118 H66        101.1200    90.7180   102.0500 hc         1 DK8       0.038867
    119 H67        107.7930    83.6690    93.9080 ha         1 DK8       0.137000
    120 H68        108.5420    81.4410    94.6490 ha         1 DK8       0.122000
    121 H69        107.1470    79.4500    94.1990 ha         1 DK8       0.122000
    122 H70        104.9930    79.6910    93.0210 ha         1 DK8       0.138000
@<TRIPOS>BOND
     1     1     2 1   
     2     1    12 1   
     3     1    51 2   
     4     2    45 ar  
     5     2    50 ar  
     6     3     4 1   
     7     3    23 1   
     8     3    53 1   
     9     3    54 1   
    10     4     5 2   
    11     4    55 1   
    12     5     6 1   
    13     5     7 1   
    14     6    56 1   
    15     6    57 1   
    16     6    58 1   
    17     7     8 1   
    18     7    59 1   
    19     7    60 1   
    20     8     9 1   
    21     8    61 1   
    22     8    62 1   
    23     9    10 2   
    24     9    63 1   
    25    10    11 1   
    26    10    13 1   
    27    11    64 1   
    28    11    65 1   
    29    11    66 1   
    30    12    23 2   
    31    12    67 1   
    32    13    14 1   
    33    13    68 1   
    34    13    69 1   
    35    14    15 1   
    36    14    70 1   
    37    14    71 1   
    38    15    16 2   
    39    15    72 1   
    40    16    17 1   
    41    16    18 1   
    42    17    73 1   
    43    17    74 1   
    44    17    75 1   
    45    18    19 1   
    46    18    76 1   
    47    18    77 1   
    48    19    20 1   
    49    19    78 1   
    50    19    79 1   
    51    20    21 2   
    52    20    80 1   
    53    21    22 1   
    54    21    24 1   
    55    22    81 1   
    56    22    82 1   
    57    22    83 1   
    58    23    34 1   
    59    24    25 1   
    60    24    84 1   
    61    24    85 1   
    62    25    26 1   
    63    25    86 1   
    64    25    87 1   
    65    26    27 2   
    66    26    88 1   
    67    27    28 1   
    68    27    29 1   
    69    28    89 1   
    70    28    90 1   
    71    28    91 1   
    72    29    30 1   
    73    29    92 1   
    74    29    93 1   
    75    30    31 1   
    76    30    94 1   
    77    30    95 1   
    78    31    32 2   
    79    31    96 1   
    80    32    33 1   
    81    32    35 1   
    82    33    97 1   
    83    33    98 1   
    84    33    99 1   
    85    34    45 1   
    86    34    52 2   
    87    35    36 1   
    88    35   100 1   
    89    35   101 1   
    90    36    37 1   
    91    36   102 1   
    92    36   103 1   
    93    37    38 2   
    94    37   104 1   
    95    38    39 1   
    96    38    40 1   
    97    39    41 1   
    98    39   105 1   
    99    39   106 1   
   100    40   107 1   
   101    40   108 1   
   102    40   109 1   
   103    41    42 1   
   104    41   110 1   
   105    41   111 1   
   106    42    43 2   
   107    42   112 1   
   108    43    44 1   
   109    43    46 1   
   110    44   113 1   
   111    44   114 1   
   112    44   115 1   
   113    45    47 ar  
   114    46   116 1   
   115    46   117 1   
   116    46   118 1   
   117    47    48 ar  
   118    47   119 1   
   119    48    49 ar  
   120    48   120 1   
   121    49    50 ar  
   122    49   121 1   
   123    50   122 1   
@<TRIPOS>SUBSTRUCTURE
     1 DK8         1 TEMP              0 ****  ****    0 ROOT
