@<TRIPOS>MOLECULE
DK9
   19    18     1     0     0
SMALL
abcg2


@<TRIPOS>ATOM
      1 O4         -59.9010   -21.9460   -22.3310 oh         1 DK9      -0.668000
      2 C4         -60.3270   -20.8040   -23.0400 c3         1 DK9       0.400300
      3 O3         -60.1560   -21.0640   -24.3930 oh         1 DK9      -0.668000
      4 C5         -59.5440   -19.5580   -22.6480 c3         1 DK9      -0.096400
      5 C6         -58.0220   -19.6350   -22.7490 c3         1 DK9      -0.060400
      6 C7         -57.4380   -19.5210   -24.1540 c3         1 DK9      -0.072400
      7 C8         -55.9160   -19.4540   -24.1340 c3         1 DK9      -0.089100
      8 H1         -60.1420   -21.8360   -21.4050 ho         1 DK9       0.453000
      9 H2         -60.7830   -21.7450   -24.6580 ho         1 DK9       0.453000
     10 H3         -59.9210   -18.7130   -23.2330 hc         1 DK9       0.044200
     11 H4         -59.8140   -19.3370   -21.6100 hc         1 DK9       0.044200
     12 H5         -57.6690   -20.5580   -22.2780 hc         1 DK9       0.038700
     13 H6         -57.6100   -18.8210   -22.1440 hc         1 DK9       0.038700
     14 H7         -57.8350   -18.6220   -24.6370 hc         1 DK9       0.046200
     15 H8         -57.7590   -20.3630   -24.7670 hc         1 DK9       0.046200
     16 H9         -55.5050   -19.3800   -25.1420 hc         1 DK9       0.029033
     17 H10        -55.5650   -18.5880   -23.5700 hc         1 DK9       0.029033
     18 H11        -55.4870   -20.3440   -23.6690 hc         1 DK9       0.029033
     19 H12        -61.3910   -20.6180   -22.8180 h2         1 DK9       0.002700
@<TRIPOS>BOND
     1     1     2 1   
     2     1     8 1   
     3     2     3 1   
     4     2     4 1   
     5     2    19 1   
     6     3     9 1   
     7     4     5 1   
     8     4    10 1   
     9     4    11 1   
    10     5     6 1   
    11     5    12 1   
    12     5    13 1   
    13     6     7 1   
    14     6    14 1   
    15     6    15 1   
    16     7    16 1   
    17     7    17 1   
    18     7    18 1   
@<TRIPOS>SUBSTRUCTURE
     1 DK9         1 TEMP              0 ****  ****    0 ROOT
