@<TRIPOS>MOLECULE
DK9
   19    18     1     0     0
SMALL
No Charge or Current Charge


@<TRIPOS>ATOM
      1 O4         -59.7280   -21.8820   -22.2660 oh         1 DK9      -0.668000
      2 C4         -60.2940   -20.7670   -22.9220 c3         1 DK9       0.400300
      3 O3         -60.2590   -21.0410   -24.3060 oh         1 DK9      -0.668000
      4 C5         -59.5200   -19.4640   -22.5810 c3         1 DK9      -0.096400
      5 C6         -57.9670   -19.4830   -22.6970 c3         1 DK9      -0.060400
      6 C7         -57.4060   -19.6240   -24.1320 c3         1 DK9      -0.072400
      7 C8         -55.8730   -19.4800   -24.1950 c3         1 DK9      -0.089100
      8 H1         -60.4650   -22.5090   -22.1130 ho         1 DK9       0.453000
      9 H2         -61.0900   -21.5190   -24.5090 ho         1 DK9       0.453000
     10 H3         -59.9140   -18.6480   -23.1990 hc         1 DK9       0.044200
     11 H4         -59.7700   -19.1990   -21.5470 hc         1 DK9       0.044200
     12 H5         -57.5600   -20.2840   -22.0680 hc         1 DK9       0.038700
     13 H6         -57.5910   -18.5440   -22.2730 hc         1 DK9       0.038700
     14 H7         -57.8640   -18.8670   -24.7800 hc         1 DK9       0.046200
     15 H8         -57.6760   -20.6050   -24.5400 hc         1 DK9       0.046200
     16 H9         -55.5210   -19.5940   -25.2280 hc         1 DK9       0.029033
     17 H10        -55.5600   -18.4930   -23.8340 hc         1 DK9       0.029033
     18 H11        -55.3860   -20.2460   -23.5800 hc         1 DK9       0.029033
     19 H12        -61.3400   -20.6580   -22.6110 h2         1 DK9       0.002700
@<TRIPOS>BOND
     1     1     2 1   
     2     1     8 1   
     3     2     3 1   
     4     2     4 1   
     5     2    19 1   
     6     3     9 1   
     7     4     5 1   
     8     4    10 1   
     9     4    11 1   
    10     5     6 1   
    11     5    12 1   
    12     5    13 1   
    13     6     7 1   
    14     6    14 1   
    15     6    15 1   
    16     7    16 1   
    17     7    17 1   
    18     7    18 1   
@<TRIPOS>SUBSTRUCTURE
     1 DK9         1 TEMP              0 ****  ****    0 ROOT
