@<TRIPOS>MOLECULE
DKA
   31    30     1     0     0
SMALL
No Charge or Current Charge


@<TRIPOS>ATOM
      1 C1          -4.7110    -0.0970    -0.0310 c          1 DKA       0.717000
      2 O1          -5.1790    -0.6020     0.9790 o          1 DKA      -0.744000
      3 C2          -3.4270     0.7430     0.1050 c3         1 DKA      -0.204400
      4 C3          -2.1790    -0.1620    -0.0400 c3         1 DKA      -0.053400
      5 C4          -0.8480     0.6130     0.0840 c3         1 DKA      -0.079400
      6 C5           0.3950    -0.2920    -0.0610 c3         1 DKA      -0.075400
      7 C6           1.7250     0.4830     0.0640 c3         1 DKA      -0.075400
      8 C7           2.9690    -0.4210    -0.0810 c3         1 DKA      -0.075400
      9 C8           4.2990     0.3540     0.0440 c3         1 DKA      -0.076400
     10 C9           5.5420    -0.5510    -0.1010 c3         1 DKA      -0.075400
     11 C10          6.8690     0.2230     0.0240 c3         1 DKA      -0.087100
     12 O2          -5.1790    -0.2600    -1.1470 o          1 DKA      -0.744000
     13 H21         -3.3610     1.4770    -0.7080 hc         1 DKA       0.014200
     14 H22         -3.3620     1.1860     1.1060 hc         1 DKA       0.014200
     15 H31         -2.2110    -0.9460     0.7260 hc         1 DKA       0.037700
     16 H32         -2.2110    -0.6670    -1.0140 hc         1 DKA       0.037700
     17 H41         -0.8140     1.3970    -0.6830 hc         1 DKA       0.023700
     18 H42         -0.8140     1.1170     1.0590 hc         1 DKA       0.023700
     19 H51          0.3620    -1.0750     0.7070 hc         1 DKA       0.033700
     20 H52          0.3630    -0.7950    -1.0350 hc         1 DKA       0.033700
     21 H61          1.7590     1.2670    -0.7030 hc         1 DKA       0.031700
     22 H62          1.7580     0.9870     1.0380 hc         1 DKA       0.031700
     23 H71          2.9350    -1.2050     0.6860 hc         1 DKA       0.034700
     24 H72          2.9360    -0.9250    -1.0550 hc         1 DKA       0.034700
     25 H81          4.3320     1.1380    -0.7230 hc         1 DKA       0.034700
     26 H82          4.3320     0.8570     1.0180 hc         1 DKA       0.034700
     27 H91          5.5130    -1.3350     0.6660 hc         1 DKA       0.035200
     28 H92          5.5130    -1.0540    -1.0750 hc         1 DKA       0.035200
     29 H101         6.9440     0.9930    -0.7540 hc         1 DKA       0.026700
     30 H102         6.9430     0.7100     1.0030 hc         1 DKA       0.026700
     31 H103         7.7200    -0.4600    -0.0860 hc         1 DKA       0.026700
@<TRIPOS>BOND
     1     1     2 1   
     2     1     3 1   
     3     1    12 1   
     4     3     4 1   
     5     3    13 1   
     6     3    14 1   
     7     4     5 1   
     8     4    15 1   
     9     4    16 1   
    10     5     6 1   
    11     5    17 1   
    12     5    18 1   
    13     6     7 1   
    14     6    19 1   
    15     6    20 1   
    16     7     8 1   
    17     7    21 1   
    18     7    22 1   
    19     8     9 1   
    20     8    23 1   
    21     8    24 1   
    22     9    10 1   
    23     9    25 1   
    24     9    26 1   
    25    10    11 1   
    26    10    27 1   
    27    10    28 1   
    28    11    29 1   
    29    11    30 1   
    30    11    31 1   
@<TRIPOS>SUBSTRUCTURE
     1 DKA         1 TEMP              0 ****  ****    0 ROOT
