@<TRIPOS>MOLECULE
DKA
   31    30     1     0     0
SMALL
bcc


@<TRIPOS>ATOM
      1 C1          -4.7180     0.0030    -0.0400 c          1 DKA       0.927600
      2 O1          -4.7470    -1.2430    -0.0080 o          1 DKA      -0.849300
      3 C2          -3.3420     0.6930    -0.0260 c3         1 DKA      -0.204400
      4 C3          -2.1280    -0.2210    -0.0120 c3         1 DKA      -0.053400
      5 C4          -0.8140     0.5520    -0.0020 c3         1 DKA      -0.079400
      6 C5           0.4190    -0.3440     0.0090 c3         1 DKA      -0.075400
      7 C6           1.7270     0.4380     0.0100 c3         1 DKA      -0.075400
      8 C7           2.9660    -0.4490     0.0170 c3         1 DKA      -0.075400
      9 C8           4.2680     0.3420     0.0090 c3         1 DKA      -0.076400
     10 C9           5.5130    -0.5370     0.0240 c3         1 DKA      -0.075400
     11 C10          6.8030     0.2720     0.0120 c3         1 DKA      -0.087100
     12 O2          -5.7090     0.7630    -0.0790 o          1 DKA      -0.849300
     13 H21         -3.2880     1.3610    -0.8940 hc         1 DKA       0.014200
     14 H22         -3.3060     1.3610     0.8430 hc         1 DKA       0.014200
     15 H31         -2.1670    -0.8780     0.8620 hc         1 DKA       0.037700
     16 H32         -2.1490    -0.8820    -0.8850 hc         1 DKA       0.037700
     17 H41         -0.7720     1.2110    -0.8760 hc         1 DKA       0.023700
     18 H42         -0.7860     1.2120     0.8730 hc         1 DKA       0.023700
     19 H51          0.3850    -0.9990     0.8870 hc         1 DKA       0.033700
     20 H52          0.3930    -1.0070    -0.8630 hc         1 DKA       0.033700
     21 H61          1.7570     1.0930    -0.8680 hc         1 DKA       0.031700
     22 H62          1.7520     1.1010     0.8820 hc         1 DKA       0.031700
     23 H71          2.9410    -1.1020     0.8970 hc         1 DKA       0.034700
     24 H72          2.9400    -1.1150    -0.8530 hc         1 DKA       0.034700
     25 H81          4.2930     0.9880    -0.8760 hc         1 DKA       0.034700
     26 H82          4.2900     1.0150     0.8740 hc         1 DKA       0.034700
     27 H91          5.4900    -1.1820     0.9080 hc         1 DKA       0.035200
     28 H92          5.4910    -1.2070    -0.8410 hc         1 DKA       0.035200
     29 H101         6.8690     0.8930    -0.8830 hc         1 DKA       0.026700
     30 H102         6.8580     0.9360     0.8770 hc         1 DKA       0.026700
     31 H103         7.6840    -0.3710     0.0330 hc         1 DKA       0.026700
@<TRIPOS>BOND
     1     1     2 1   
     2     1     3 1   
     3     1    12 1   
     4     3     4 1   
     5     3    13 1   
     6     3    14 1   
     7     4     5 1   
     8     4    15 1   
     9     4    16 1   
    10     5     6 1   
    11     5    17 1   
    12     5    18 1   
    13     6     7 1   
    14     6    19 1   
    15     6    20 1   
    16     7     8 1   
    17     7    21 1   
    18     7    22 1   
    19     8     9 1   
    20     8    23 1   
    21     8    24 1   
    22     9    10 1   
    23     9    25 1   
    24     9    26 1   
    25    10    11 1   
    26    10    27 1   
    27    10    28 1   
    28    11    29 1   
    29    11    30 1   
    30    11    31 1   
@<TRIPOS>SUBSTRUCTURE
     1 DKA         1 TEMP              0 ****  ****    0 ROOT
