@<TRIPOS>MOLECULE
DKB
  126   125     1     0     0
SMALL
No Charge or Current Charge


@<TRIPOS>ATOM
      1 C48        119.5470    99.9690   137.8640 c3         1 DKB      -0.091100
      2 C47        118.1630   100.5650   137.5280 c3         1 DKB      -0.074400
      3 C46        117.1510   100.5340   138.7030 c3         1 DKB      -0.073400
      4 C45        117.4630   101.4710   139.9040 c3         1 DKB      -0.076400
      5 C44        116.8620   102.8990   139.8210 c3         1 DKB      -0.075400
      6 C43        117.3520   103.7580   138.6330 c3         1 DKB      -0.072400
      7 C42        116.9800   105.2620   138.7000 c3         1 DKB      -0.074400
      8 C41        115.4590   105.5820   138.6810 c3         1 DKB      -0.072400
      9 C40        114.7700   105.6910   140.0660 c3         1 DKB      -0.076400
     10 C39        115.1410   106.9710   140.8590 c3         1 DKB      -0.074400
     11 C38        114.5390   107.0360   142.2820 c3         1 DKB      -0.075400
     12 C37        112.9930   107.1320   142.3280 c3         1 DKB      -0.073400
     13 C36        112.4100   107.3190   143.7500 c3         1 DKB      -0.075400
     14 C35        112.6730   106.1240   144.6970 c3         1 DKB      -0.074400
     15 C34        111.9830   106.2220   146.0770 c3         1 DKB      -0.080400
     16 C33        112.4510   107.4150   146.9460 c3         1 DKB      -0.065400
     17 C32        111.9880   107.3380   148.4240 c3         1 DKB      -0.139400
     18 C31        112.5790   106.1170   149.1380 c          1 DKB       0.593100
     19 O31        113.7630   106.0190   149.4290 o          1 DKB      -0.477000
     20 O2         111.6410   105.1340   149.3380 os         1 DKB      -0.459100
     21 C2         112.0690   103.8420   149.8460 c3         1 DKB       0.132300
     22 C1         112.4340   103.9690   151.3530 c3         1 DKB       0.212600
     23 O3P        112.8480   102.6830   151.8420 os         1 DKB      -0.600400
     24 P          112.3350   102.1810   153.2840 p5         1 DKB       1.391800
     25 O1P        113.1390   101.0260   153.7740 o          1 DKB      -0.806000
     26 O2P        112.3210   103.3010   154.2690 o          1 DKB      -0.806000
     27 O4P        110.8400   101.7530   152.8590 os         1 DKB      -0.605400
     28 C4         110.5650   100.4780   152.2560 c3         1 DKB       0.230600
     29 C5         110.4260    99.3820   153.3570 c3         1 DKB       0.107800
     30 N6         109.9230    98.0780   152.8420 n8         1 DKB      -0.999200
     31 C3         110.9220   102.8120   149.6230 c3         1 DKB       0.174600
     32 O3         110.3010   102.9500   148.3200 os         1 DKB      -0.454100
     33 C11        111.0200   102.7140   147.1770 c          1 DKB       0.591100
     34 O11        112.2150   102.4630   147.1420 o          1 DKB      -0.484000
     35 C12        110.1560   102.9380   145.9320 c3         1 DKB      -0.141400
     36 C13        109.9090   101.6680   145.0760 c3         1 DKB      -0.062400
     37 C14        109.2910   100.4420   145.8070 c3         1 DKB      -0.069400
     38 C15        110.2350    99.6070   146.7210 c3         1 DKB      -0.066400
     39 C16        111.5940    99.1920   146.0990 c3         1 DKB      -0.076400
     40 C17        111.4950    98.2790   144.8500 c3         1 DKB      -0.074400
     41 C18        112.7580    98.2960   143.9570 c3         1 DKB      -0.072400
     42 C19        114.0570    97.7940   144.6370 c3         1 DKB      -0.076400
     43 C20        115.3320    98.0260   143.7900 c3         1 DKB      -0.075400
     44 C21        115.4230    97.1700   142.5010 c3         1 DKB      -0.073400
     45 C22        116.5580    97.5950   141.5400 c3         1 DKB      -0.074400
     46 C23        117.9860    97.4660   142.1180 c3         1 DKB      -0.077400
     47 C24        119.0770    97.8660   141.0970 c3         1 DKB      -0.078400
     48 C25        120.5270    97.7030   141.6080 c3         1 DKB      -0.072400
     49 C26        120.9030    98.6500   142.7660 c3         1 DKB      -0.090100
     50 H1         120.1870    99.9750   136.9740 hc         1 DKB       0.030700
     51 H2         120.0530   100.5470   138.6450 hc         1 DKB       0.030700
     52 H3         119.4500    98.9320   138.2050 hc         1 DKB       0.030700
     53 H4         118.2950   101.5870   137.1590 hc         1 DKB       0.034700
     54 H5         117.7390    99.9910   136.6950 hc         1 DKB       0.034700
     55 H6         116.1490   100.7660   138.3200 hc         1 DKB       0.036700
     56 H7         117.0960    99.5020   139.0700 hc         1 DKB       0.036700
     57 H8         117.0570   101.0020   140.8080 hc         1 DKB       0.040700
     58 H9         118.5440   101.5390   140.0660 hc         1 DKB       0.040700
     59 H10        115.7700   102.8130   139.7760 hc         1 DKB       0.039700
     60 H11        117.1000   103.4210   140.7560 hc         1 DKB       0.039700
     61 H12        118.4440   103.6810   138.5690 hc         1 DKB       0.034700
     62 H13        116.9490   103.3450   137.7020 hc         1 DKB       0.034700
     63 H14        117.4580   105.7160   139.5750 hc         1 DKB       0.036200
     64 H15        117.4340   105.7470   137.8270 hc         1 DKB       0.036200
     65 H16        115.3080   106.5300   138.1510 hc         1 DKB       0.034200
     66 H17        114.9420   104.8210   138.0830 hc         1 DKB       0.034200
     67 H18        113.6860   105.6790   139.9030 hc         1 DKB       0.040700
     68 H19        115.0000   104.8090   140.6740 hc         1 DKB       0.040700
     69 H20        116.2300   107.0370   140.9530 hc         1 DKB       0.034200
     70 H21        114.8230   107.8540   140.2910 hc         1 DKB       0.034200
     71 H22        114.8730   106.1530   142.8410 hc         1 DKB       0.040700
     72 H23        114.9610   107.9090   142.7960 hc         1 DKB       0.040700
     73 H24        112.6720   107.9790   141.7080 hc         1 DKB       0.034200
     74 H25        112.5520   106.2320   141.8830 hc         1 DKB       0.034200
     75 H26        112.8230   108.2360   144.1870 hc         1 DKB       0.035200
     76 H27        111.3260   107.4710   143.6650 hc         1 DKB       0.035200
     77 H28        112.3350   105.2030   144.2060 hc         1 DKB       0.040700
     78 H29        113.7520   106.0120   144.8590 hc         1 DKB       0.040700
     79 H30        110.8960   106.2710   145.9440 hc         1 DKB       0.045200
     80 H31        112.1910   105.2870   146.6090 hc         1 DKB       0.045200
     81 H32        113.5470   107.4730   146.9230 hc         1 DKB       0.045700
     82 H33        112.0780   108.3490   146.5080 hc         1 DKB       0.045700
     83 H34        112.3330   108.2410   148.9410 hc         1 DKB       0.066200
     84 H35        110.8930   107.2930   148.4550 hc         1 DKB       0.066200
     85 H36        112.9600   103.4930   149.3080 h1         1 DKB       0.097700
     86 H37        113.2460   104.6930   151.4910 h1         1 DKB       0.033700
     87 H38        111.5560   104.3430   151.8970 h1         1 DKB       0.033700
     88 H40        109.6270   100.5390   151.6880 h1         1 DKB       0.019700
     89 H41        111.3620   100.1950   151.5540 h1         1 DKB       0.019700
     90 H42        111.3980    99.2060   153.8340 h1         1 DKB       0.047200
     91 H43        109.7290    99.7410   154.1290 h1         1 DKB       0.047200
     92 H44        109.8090    97.4260   153.6280 hn         1 DKB       0.376500
     93 H45        108.9660    98.1990   152.4870 hn         1 DKB       0.376500
     94 H47        110.1640   102.9630   150.4030 h1         1 DKB       0.078700
     95 H48        111.3230   101.7990   149.7520 h1         1 DKB       0.078700
     96 H49        110.6570   103.6750   145.2950 hc         1 DKB       0.065200
     97 H50        109.1820   103.3390   146.2370 hc         1 DKB       0.065200
     98 H51        110.8390   101.3800   144.5730 hc         1 DKB       0.044200
     99 H52        109.2240   101.9510   144.2680 hc         1 DKB       0.044200
    100 H53        108.4320   100.7790   146.4010 hc         1 DKB       0.029200
    101 H54        108.8720    99.7720   145.0460 hc         1 DKB       0.029200
    102 H55        109.7010    98.7000   147.0300 hc         1 DKB       0.040200
    103 H56        110.4270   100.1610   147.6470 hc         1 DKB       0.040200
    104 H57        112.1780    98.6710   146.8670 hc         1 DKB       0.052200
    105 H58        112.1700   100.0900   145.8510 hc         1 DKB       0.052200
    106 H59        110.6540    98.5950   144.2240 hc         1 DKB       0.029200
    107 H60        111.2780    97.2510   145.1660 hc         1 DKB       0.029200
    108 H61        112.9150    99.3210   143.5960 hc         1 DKB       0.031700
    109 H62        112.5530    97.6840   143.0720 hc         1 DKB       0.031700
    110 H63        113.9600    96.7270   144.8760 hc         1 DKB       0.044200
    111 H64        114.1930    98.3180   145.5900 hc         1 DKB       0.044200
    112 H65        116.2040    97.8120   144.4190 hc         1 DKB       0.039200
    113 H66        115.3920    99.0890   143.5260 hc         1 DKB       0.039200
    114 H67        114.4810    97.2380   141.9470 hc         1 DKB       0.035700
    115 H68        115.5500    96.1150   142.7750 hc         1 DKB       0.035700
    116 H69        116.3860    98.6330   141.2340 hc         1 DKB       0.032700
    117 H70        116.4870    96.9850   140.6310 hc         1 DKB       0.032700
    118 H71        118.1540    96.4320   142.4430 hc         1 DKB       0.041700
    119 H72        118.0750    98.1040   143.0050 hc         1 DKB       0.041700
    120 H73        118.9230    98.9080   140.7910 hc         1 DKB       0.034700
    121 H74        118.9580    97.2540   140.1940 hc         1 DKB       0.034700
    122 H75        121.2130    97.8890   140.7710 hc         1 DKB       0.033700
    123 H76        120.6900    96.6650   141.9210 hc         1 DKB       0.033700
    124 H77        121.9650    98.5400   143.0170 hc         1 DKB       0.032033
    125 H78        120.7260    99.6960   142.4860 hc         1 DKB       0.032033
    126 H79        120.3190    98.4270   143.6660 hc         1 DKB       0.032033
@<TRIPOS>BOND
     1     1     2 1   
     2     1    50 1   
     3     1    51 1   
     4     1    52 1   
     5     2     3 1   
     6     2    53 1   
     7     2    54 1   
     8     3     4 1   
     9     3    55 1   
    10     3    56 1   
    11     4     5 1   
    12     4    57 1   
    13     4    58 1   
    14     5     6 1   
    15     5    59 1   
    16     5    60 1   
    17     6     7 1   
    18     6    61 1   
    19     6    62 1   
    20     7     8 1   
    21     7    63 1   
    22     7    64 1   
    23     8     9 1   
    24     8    65 1   
    25     8    66 1   
    26     9    10 1   
    27     9    67 1   
    28     9    68 1   
    29    10    11 1   
    30    10    69 1   
    31    10    70 1   
    32    11    12 1   
    33    11    71 1   
    34    11    72 1   
    35    12    13 1   
    36    12    73 1   
    37    12    74 1   
    38    13    14 1   
    39    13    75 1   
    40    13    76 1   
    41    14    15 1   
    42    14    77 1   
    43    14    78 1   
    44    15    16 1   
    45    15    79 1   
    46    15    80 1   
    47    16    17 1   
    48    16    81 1   
    49    16    82 1   
    50    17    18 1   
    51    17    83 1   
    52    17    84 1   
    53    18    19 2   
    54    18    20 1   
    55    20    21 1   
    56    21    22 1   
    57    21    31 1   
    58    21    85 1   
    59    22    23 1   
    60    22    86 1   
    61    22    87 1   
    62    23    24 1   
    63    24    25 1   
    64    24    26 1   
    65    24    27 1   
    66    27    28 1   
    67    28    29 1   
    68    28    88 1   
    69    28    89 1   
    70    29    30 1   
    71    29    90 1   
    72    29    91 1   
    73    30    92 1   
    74    30    93 1   
    75    31    32 1   
    76    31    94 1   
    77    31    95 1   
    78    32    33 1   
    79    33    34 2   
    80    33    35 1   
    81    35    36 1   
    82    35    96 1   
    83    35    97 1   
    84    36    37 1   
    85    36    98 1   
    86    36    99 1   
    87    37    38 1   
    88    37   100 1   
    89    37   101 1   
    90    38    39 1   
    91    38   102 1   
    92    38   103 1   
    93    39    40 1   
    94    39   104 1   
    95    39   105 1   
    96    40    41 1   
    97    40   106 1   
    98    40   107 1   
    99    41    42 1   
   100    41   108 1   
   101    41   109 1   
   102    42    43 1   
   103    42   110 1   
   104    42   111 1   
   105    43    44 1   
   106    43   112 1   
   107    43   113 1   
   108    44    45 1   
   109    44   114 1   
   110    44   115 1   
   111    45    46 1   
   112    45   116 1   
   113    45   117 1   
   114    46    47 1   
   115    46   118 1   
   116    46   119 1   
   117    47    48 1   
   118    47   120 1   
   119    47   121 1   
   120    48    49 1   
   121    48   122 1   
   122    48   123 1   
   123    49   124 1   
   124    49   125 1   
   125    49   126 1   
@<TRIPOS>SUBSTRUCTURE
     1 DKB         1 TEMP              0 ****  ****    0 ROOT
