@<TRIPOS>MOLECULE
DKB
  126   125     1     0     0
SMALL
abcg2


@<TRIPOS>ATOM
      1 C48        120.6760   100.4940   138.1040 c3         1 DKB      -0.091100
      2 C47        119.4390   101.1430   137.4980 c3         1 DKB      -0.074400
      3 C46        118.1680   100.9050   138.3140 c3         1 DKB      -0.073400
      4 C45        118.1250   101.6330   139.6650 c3         1 DKB      -0.076400
      5 C44        117.3270   102.9370   139.6610 c3         1 DKB      -0.075400
      6 C43        117.8190   103.9840   138.6680 c3         1 DKB      -0.072400
      7 C42        117.1380   105.3470   138.7850 c3         1 DKB      -0.074400
      8 C41        115.6140   105.3280   138.5970 c3         1 DKB      -0.072400
      9 C40        114.8050   105.2280   139.8930 c3         1 DKB      -0.076400
     10 C39        114.8270   106.5170   140.7100 c3         1 DKB      -0.074400
     11 C38        114.2070   106.3960   142.0990 c3         1 DKB      -0.075400
     12 C37        112.7040   106.1360   142.1040 c3         1 DKB      -0.073400
     13 C36        112.1000   106.1150   143.5080 c3         1 DKB      -0.075400
     14 C35        112.4980   104.8890   144.3260 c3         1 DKB      -0.074400
     15 C34        111.9790   104.8910   145.7600 c3         1 DKB      -0.080400
     16 C33        112.6290   105.9480   146.6480 c3         1 DKB      -0.065400
     17 C32        112.1770   105.8700   148.1020 c3         1 DKB      -0.139400
     18 C31        112.6350   104.6070   148.7850 c          1 DKB       0.593100
     19 O31        113.7050   104.0840   148.6080 o          1 DKB      -0.477000
     20 O2         111.7160   104.1410   149.6320 os         1 DKB      -0.459100
     21 C2         111.9290   102.8860   150.2770 c3         1 DKB       0.132300
     22 C1         112.4560   103.1360   151.6840 c3         1 DKB       0.212600
     23 O3P        112.5430   101.8830   152.3190 os         1 DKB      -0.600400
     24 P          112.9290   101.7880   153.9250 p5         1 DKB       1.391800
     25 O1P        112.8670   100.3280   154.2360 o          1 DKB      -0.806000
     26 O2P        114.1300   102.6290   154.2090 o          1 DKB      -0.806000
     27 O4P        111.6700   102.5900   154.6060 os         1 DKB      -0.605400
     28 C4         110.3690   102.0290   154.5920 c3         1 DKB       0.230600
     29 C5         110.0490   101.3310   155.9030 c3         1 DKB       0.107800
     30 N6         108.6790   100.8430   155.8690 n8         1 DKB      -0.999200
     31 C3         110.5760   102.1670   150.3120 c3         1 DKB       0.174600
     32 O3         109.7600   102.4170   149.1700 os         1 DKB      -0.454100
     33 C11        110.1830   102.0550   147.9610 c          1 DKB       0.591100
     34 O11        111.2260   101.4840   147.7710 o          1 DKB      -0.484000
     35 C12        109.2010   102.4980   146.9090 c3         1 DKB      -0.141400
     36 C13        109.5110   102.1040   145.4680 c3         1 DKB      -0.062400
     37 C14        109.0320   100.7150   145.0420 c3         1 DKB      -0.069400
     38 C15        109.8380    99.5230   145.5580 c3         1 DKB      -0.066400
     39 C16        111.2810    99.4670   145.0570 c3         1 DKB      -0.076400
     40 C17        111.4020    99.1170   143.5760 c3         1 DKB      -0.074400
     41 C18        112.7950    99.3290   142.9900 c3         1 DKB      -0.072400
     42 C19        113.9080    98.5670   143.7020 c3         1 DKB      -0.076400
     43 C20        115.2610    98.6680   142.9970 c3         1 DKB      -0.075400
     44 C21        115.3790    97.7640   141.7730 c3         1 DKB      -0.073400
     45 C22        116.6400    97.9850   140.9440 c3         1 DKB      -0.074400
     46 C23        117.9450    97.8020   141.7100 c3         1 DKB      -0.077400
     47 C24        119.1650    97.8430   140.7970 c3         1 DKB      -0.078400
     48 C25        120.5050    97.7670   141.5240 c3         1 DKB      -0.072400
     49 C26        120.8220    99.0050   142.3540 c3         1 DKB      -0.090100
     50 H1         121.5610   100.6820   137.4950 hc         1 DKB       0.030700
     51 H2         120.8870   100.8700   139.1070 hc         1 DKB       0.030700
     52 H3         120.5520    99.4120   138.1830 hc         1 DKB       0.030700
     53 H4         119.6100   102.2160   137.3790 hc         1 DKB       0.034700
     54 H5         119.2910   100.7480   136.4890 hc         1 DKB       0.034700
     55 H6         117.2950   101.1960   137.7210 hc         1 DKB       0.036700
     56 H7         118.0650    99.8270   138.4720 hc         1 DKB       0.036700
     57 H8         117.6840   100.9790   140.4230 hc         1 DKB       0.040700
     58 H9         119.1420   101.8370   140.0160 hc         1 DKB       0.040700
     59 H10        116.2780   102.7040   139.4520 hc         1 DKB       0.039700
     60 H11        117.3460   103.3610   140.6700 hc         1 DKB       0.039700
     61 H12        118.8980   104.1220   138.7980 hc         1 DKB       0.034700
     62 H13        117.6830   103.6100   137.6470 hc         1 DKB       0.034700
     63 H14        117.3900   105.7890   139.7550 hc         1 DKB       0.036200
     64 H15        117.5870   106.0090   138.0390 hc         1 DKB       0.036200
     65 H16        115.2980   106.2350   138.0720 hc         1 DKB       0.034200
     66 H17        115.3460   104.4990   137.9340 hc         1 DKB       0.034200
     67 H18        113.7710   104.9690   139.6470 hc         1 DKB       0.040700
     68 H19        115.1850   104.4060   140.5070 hc         1 DKB       0.040700
     69 H20        115.8620   106.8530   140.8270 hc         1 DKB       0.034200
     70 H21        114.3190   107.3090   140.1470 hc         1 DKB       0.034200
     71 H22        114.7290   105.6050   142.6480 hc         1 DKB       0.040700
     72 H23        114.3980   107.3220   142.6510 hc         1 DKB       0.040700
     73 H24        112.2130   106.9160   141.5140 hc         1 DKB       0.034200
     74 H25        112.4770   105.1890   141.6030 hc         1 DKB       0.034200
     75 H26        112.3930   107.0310   144.0300 hc         1 DKB       0.035200
     76 H27        111.0090   106.1450   143.4360 hc         1 DKB       0.035200
     77 H28        112.1270   103.9950   143.8130 hc         1 DKB       0.040700
     78 H29        113.5880   104.7880   144.3510 hc         1 DKB       0.040700
     79 H30        110.8920   105.0350   145.7620 hc         1 DKB       0.045200
     80 H31        112.1510   103.8990   146.1870 hc         1 DKB       0.045200
     81 H32        113.7170   105.8580   146.5930 hc         1 DKB       0.045700
     82 H33        112.3910   106.9470   146.2770 hc         1 DKB       0.045700
     83 H34        112.5990   106.7080   148.6660 hc         1 DKB       0.066200
     84 H35        111.0930   105.9650   148.1750 hc         1 DKB       0.066200
     85 H36        112.6550   102.2980   149.7170 h1         1 DKB       0.097700
     86 H37        113.4330   103.6280   151.6260 h1         1 DKB       0.033700
     87 H38        111.7700   103.8130   152.2090 h1         1 DKB       0.033700
     88 H40        109.6640   102.8520   154.4330 h1         1 DKB       0.019700
     89 H41        110.2260   101.3270   153.7640 h1         1 DKB       0.019700
     90 H42        110.7220   100.4800   156.0190 h1         1 DKB       0.047200
     91 H43        110.2570   102.0190   156.7340 h1         1 DKB       0.047200
     92 H44        108.5000   100.2780   156.6880 hn         1 DKB       0.376500
     93 H45        108.0400   101.6260   155.9310 hn         1 DKB       0.376500
     94 H47        109.9760   102.5250   151.1490 h1         1 DKB       0.078700
     95 H48        110.7360   101.0960   150.4440 h1         1 DKB       0.078700
     96 H49        109.1540   103.5890   146.9850 hc         1 DKB       0.065200
     97 H50        108.2030   102.1510   147.1930 hc         1 DKB       0.065200
     98 H51        110.5750   102.2300   145.2590 hc         1 DKB       0.044200
     99 H52        109.0050   102.8330   144.8310 hc         1 DKB       0.044200
    100 H53        107.9890   100.5990   145.3530 hc         1 DKB       0.029200
    101 H54        109.0130   100.6870   143.9490 hc         1 DKB       0.029200
    102 H55        109.3240    98.6050   145.2540 hc         1 DKB       0.040200
    103 H56        109.8310    99.5160   146.6490 hc         1 DKB       0.040200
    104 H57        111.8270    98.7270   145.6480 hc         1 DKB       0.052200
    105 H58        111.7780   100.4210   145.2540 hc         1 DKB       0.052200
    106 H59        110.6950    99.7160   142.9950 hc         1 DKB       0.029200
    107 H60        111.0970    98.0740   143.4310 hc         1 DKB       0.029200
    108 H61        113.0350   100.3980   143.0120 hc         1 DKB       0.031700
    109 H62        112.7730    99.0500   141.9320 hc         1 DKB       0.031700
    110 H63        113.6290    97.5110   143.8010 hc         1 DKB       0.044200
    111 H64        114.0080    98.9480   144.7220 hc         1 DKB       0.044200
    112 H65        116.0530    98.4150   143.7070 hc         1 DKB       0.039200
    113 H66        115.4430    99.7100   142.7060 hc         1 DKB       0.039200
    114 H67        114.5080    97.9050   141.1250 hc         1 DKB       0.035700
    115 H68        115.3420    96.7200   142.1030 hc         1 DKB       0.035700
    116 H69        116.6190    98.9920   140.5140 hc         1 DKB       0.032700
    117 H70        116.6270    97.2970   140.0920 hc         1 DKB       0.032700
    118 H71        117.9270    96.8460   142.2460 hc         1 DKB       0.041700
    119 H72        118.0310    98.5780   142.4760 hc         1 DKB       0.041700
    120 H73        119.1400    98.7620   140.2010 hc         1 DKB       0.034700
    121 H74        119.0940    97.0190   140.0810 hc         1 DKB       0.034700
    122 H75        121.2990    97.6240   140.7860 hc         1 DKB       0.033700
    123 H76        120.5250    96.8780   142.1620 hc         1 DKB       0.033700
    124 H77        121.8070    98.9310   142.8160 hc         1 DKB       0.032033
    125 H78        120.8170    99.9030   141.7310 hc         1 DKB       0.032033
    126 H79        120.0980    99.1580   143.1550 hc         1 DKB       0.032033
@<TRIPOS>BOND
     1     1     2 1   
     2     1    50 1   
     3     1    51 1   
     4     1    52 1   
     5     2     3 1   
     6     2    53 1   
     7     2    54 1   
     8     3     4 1   
     9     3    55 1   
    10     3    56 1   
    11     4     5 1   
    12     4    57 1   
    13     4    58 1   
    14     5     6 1   
    15     5    59 1   
    16     5    60 1   
    17     6     7 1   
    18     6    61 1   
    19     6    62 1   
    20     7     8 1   
    21     7    63 1   
    22     7    64 1   
    23     8     9 1   
    24     8    65 1   
    25     8    66 1   
    26     9    10 1   
    27     9    67 1   
    28     9    68 1   
    29    10    11 1   
    30    10    69 1   
    31    10    70 1   
    32    11    12 1   
    33    11    71 1   
    34    11    72 1   
    35    12    13 1   
    36    12    73 1   
    37    12    74 1   
    38    13    14 1   
    39    13    75 1   
    40    13    76 1   
    41    14    15 1   
    42    14    77 1   
    43    14    78 1   
    44    15    16 1   
    45    15    79 1   
    46    15    80 1   
    47    16    17 1   
    48    16    81 1   
    49    16    82 1   
    50    17    18 1   
    51    17    83 1   
    52    17    84 1   
    53    18    19 2   
    54    18    20 1   
    55    20    21 1   
    56    21    22 1   
    57    21    31 1   
    58    21    85 1   
    59    22    23 1   
    60    22    86 1   
    61    22    87 1   
    62    23    24 1   
    63    24    25 1   
    64    24    26 1   
    65    24    27 1   
    66    27    28 1   
    67    28    29 1   
    68    28    88 1   
    69    28    89 1   
    70    29    30 1   
    71    29    90 1   
    72    29    91 1   
    73    30    92 1   
    74    30    93 1   
    75    31    32 1   
    76    31    94 1   
    77    31    95 1   
    78    32    33 1   
    79    33    34 2   
    80    33    35 1   
    81    35    36 1   
    82    35    96 1   
    83    35    97 1   
    84    36    37 1   
    85    36    98 1   
    86    36    99 1   
    87    37    38 1   
    88    37   100 1   
    89    37   101 1   
    90    38    39 1   
    91    38   102 1   
    92    38   103 1   
    93    39    40 1   
    94    39   104 1   
    95    39   105 1   
    96    40    41 1   
    97    40   106 1   
    98    40   107 1   
    99    41    42 1   
   100    41   108 1   
   101    41   109 1   
   102    42    43 1   
   103    42   110 1   
   104    42   111 1   
   105    43    44 1   
   106    43   112 1   
   107    43   113 1   
   108    44    45 1   
   109    44   114 1   
   110    44   115 1   
   111    45    46 1   
   112    45   116 1   
   113    45   117 1   
   114    46    47 1   
   115    46   118 1   
   116    46   119 1   
   117    47    48 1   
   118    47   120 1   
   119    47   121 1   
   120    48    49 1   
   121    48   122 1   
   122    48   123 1   
   123    49   124 1   
   124    49   125 1   
   125    49   126 1   
@<TRIPOS>SUBSTRUCTURE
     1 DKB         1 TEMP              0 ****  ****    0 ROOT
