@<TRIPOS>MOLECULE
DKD
   47    49     1     0     0
SMALL
bcc


@<TRIPOS>ATOM
      1 CAK         -4.5960    -1.7820     1.1160 ca         1 DKD      -0.124000
      2 CAG         -4.5980    -3.1700     1.0910 ca         1 DKD      -0.138000
      3 CAD         -4.6240    -3.8460    -0.1220 ca         1 DKD      -0.152000
      4 CAH         -4.6520    -3.1220    -1.3080 ca         1 DKD      -0.138000
      5 CAL         -4.6550    -1.7340    -1.2760 ca         1 DKD      -0.124000
      6 CAX         -4.6280    -1.0460    -0.0650 ca         1 DKD      -0.049300
      7 CAS         -4.6000     0.4570    -0.0450 c3         1 DKD      -0.026100
      8 CAZ         -3.2010     1.0180    -0.3020 c3         1 DKD       0.001100
      9 CAU         -3.2350     2.5650    -0.3000 c          1 DKD       0.912600
     10 OAB         -2.7540     3.1480     0.6830 o          1 DKD      -0.814300
     11 OAA         -3.7790     3.0690    -1.3020 o          1 DKD      -0.814300
     12 OAT         -2.3650     0.4860     0.7060 os         1 DKD      -0.309900
     13 CAY         -1.0320     0.6070     0.5900 ca         1 DKD       0.212100
     14 CAP         -0.2710     0.0830     1.6370 ca         1 DKD      -0.195500
     15 CAN          1.1110     0.1360     1.5970 ca         1 DKD      -0.091000
     16 CAO         -0.3720     1.1810    -0.4960 ca         1 DKD      -0.195500
     17 CAM          1.0170     1.2220    -0.5160 ca         1 DKD      -0.091000
     18 CAW          1.7870     0.7080     0.5200 ca         1 DKD      -0.164300
     19 CAR          3.2890     0.7230     0.4620 c3         1 DKD      -0.007100
     20 CAQ          3.8540    -0.5160    -0.2480 c3         1 DKD      -0.038100
     21 CAV          5.3550    -0.4970    -0.3040 ca         1 DKD      -0.064300
     22 CAI          6.1150    -0.9870     0.7570 ca         1 DKD      -0.127500
     23 CAE          7.5020    -0.9320     0.7270 ca         1 DKD      -0.131500
     24 CAC          8.1550    -0.3830    -0.3700 ca         1 DKD      -0.141000
     25 CAF          7.4090     0.1100    -1.4330 ca         1 DKD      -0.131500
     26 CAJ          6.0220     0.0530    -1.3970 ca         1 DKD      -0.127500
     27 HAK         -4.5760    -1.2620     2.0670 ha         1 DKD       0.132500
     28 HAG         -4.5780    -3.7270     2.0190 ha         1 DKD       0.114000
     29 HAD         -4.6240    -4.9280    -0.1440 ha         1 DKD       0.112000
     30 HAH         -4.6780    -3.6390    -2.2590 ha         1 DKD       0.114000
     31 HAL         -4.6830    -1.1760    -2.2050 ha         1 DKD       0.132500
     32 HAS         -5.2580     0.8560    -0.8190 hc         1 DKD       0.064700
     33 HASA        -4.9710     0.8290     0.9140 hc         1 DKD       0.064700
     34 HAZ         -2.8710     0.6660    -1.2890 h1         1 DKD       0.029700
     35 HAP         -0.7750    -0.3650     2.4850 ha         1 DKD       0.142500
     36 HAN          1.6740    -0.2760     2.4270 ha         1 DKD       0.109000
     37 HAO         -0.9110     1.6060    -1.3310 ha         1 DKD       0.142500
     38 HAM          1.5080     1.6760    -1.3700 ha         1 DKD       0.109000
     39 HAR          3.6360     1.6190    -0.0580 hc         1 DKD       0.037700
     40 HARA         3.6990     0.7720     1.4740 hc         1 DKD       0.037700
     41 HAQ          3.5090    -1.4140     0.2720 hc         1 DKD       0.050200
     42 HAQA         3.4460    -0.5640    -1.2610 hc         1 DKD       0.050200
     43 HAI          5.6140    -1.4190     1.6150 ha         1 DKD       0.130000
     44 HAE          8.0730    -1.3220     1.5600 ha         1 DKD       0.122500
     45 HAC          9.2360    -0.3430    -0.3980 ha         1 DKD       0.121000
     46 HAF          7.9070     0.5370    -2.2930 ha         1 DKD       0.122500
     47 HAJ          5.4490     0.4380    -2.2330 ha         1 DKD       0.130000
@<TRIPOS>BOND
     1     1     2 ar  
     2     1     6 ar  
     3     1    27 1   
     4     2     3 ar  
     5     2    28 1   
     6     3     4 ar  
     7     3    29 1   
     8     4     5 ar  
     9     4    30 1   
    10     5     6 ar  
    11     5    31 1   
    12     6     7 1   
    13     7     8 1   
    14     7    32 1   
    15     7    33 1   
    16     8     9 1   
    17     8    12 1   
    18     8    34 1   
    19     9    10 1   
    20     9    11 1   
    21    12    13 1   
    22    13    14 ar  
    23    13    16 ar  
    24    14    15 ar  
    25    14    35 1   
    26    15    18 ar  
    27    15    36 1   
    28    16    17 ar  
    29    16    37 1   
    30    17    18 ar  
    31    17    38 1   
    32    18    19 1   
    33    19    20 1   
    34    19    39 1   
    35    19    40 1   
    36    20    21 1   
    37    20    41 1   
    38    20    42 1   
    39    21    22 ar  
    40    21    26 ar  
    41    22    23 ar  
    42    22    43 1   
    43    23    24 ar  
    44    23    44 1   
    45    24    25 ar  
    46    24    45 1   
    47    25    26 ar  
    48    25    46 1   
    49    26    47 1   
@<TRIPOS>SUBSTRUCTURE
     1 DKD         1 TEMP              0 ****  ****    0 ROOT
