@<TRIPOS>MOLECULE
DKD
   47    49     1     0     0
SMALL
No Charge or Current Charge


@<TRIPOS>ATOM
      1 CAK         -4.7740    -1.8450     1.1380 ca         1 DKD      -0.106000
      2 CAG         -4.8130    -3.2490     1.0640 ca         1 DKD      -0.120000
      3 CAD         -4.8040    -3.8880    -0.1870 ca         1 DKD      -0.134000
      4 CAH         -4.7540    -3.1230    -1.3640 ca         1 DKD      -0.120000
      5 CAL         -4.7140    -1.7190    -1.2900 ca         1 DKD      -0.106000
      6 CAX         -4.7230    -1.0720    -0.0390 ca         1 DKD      -0.049300
      7 CAS         -4.6800     0.4510     0.0370 c3         1 DKD      -0.026100
      8 CAZ         -3.2800     1.0320    -0.2800 c3         1 DKD       0.024300
      9 CAU         -3.3260     2.5980    -0.3140 c          1 DKD       0.702000
     10 OAB         -2.8310     3.2390     0.6040 o          1 DKD      -0.709000
     11 OAA         -3.8210     3.1280    -1.3000 o          1 DKD      -0.709000
     12 OAT         -2.3690     0.5010     0.7200 os         1 DKD      -0.333100
     13 CAY         -0.9940     0.5940     0.6080 ca         1 DKD       0.212100
     14 CAP         -0.2190     0.1120     1.6750 ca         1 DKD      -0.177500
     15 CAN          1.1840     0.1640     1.6200 ca         1 DKD      -0.073000
     16 CAO         -0.3500     1.1270    -0.5300 ca         1 DKD      -0.177500
     17 CAM          1.0540     1.1800    -0.5850 ca         1 DKD      -0.073000
     18 CAW          1.8270     0.7010     0.4890 ca         1 DKD      -0.164300
     19 CAR          3.3480     0.7540     0.4240 c3         1 DKD      -0.007100
     20 CAQ          3.9470    -0.5220    -0.2030 c3         1 DKD      -0.038100
     21 CAV          5.4680    -0.4710    -0.2680 ca         1 DKD      -0.064300
     22 CAI          6.2430    -0.9560     0.8040 ca         1 DKD      -0.109500
     23 CAE          7.6460    -0.9050     0.7450 ca         1 DKD      -0.113500
     24 CAC          8.2840    -0.3680    -0.3860 ca         1 DKD      -0.123000
     25 CAF          7.5170     0.1180    -1.4580 ca         1 DKD      -0.113500
     26 CAJ          6.1130     0.0670    -1.3990 ca         1 DKD      -0.109500
     27 HAK         -4.7770    -1.3590     2.1120 ha         1 DKD       0.114500
     28 HAG         -4.8510    -3.8400     1.9760 ha         1 DKD       0.096000
     29 HAD         -4.8340    -4.9730    -0.2440 ha         1 DKD       0.094000
     30 HAH         -4.7450    -3.6160    -2.3330 ha         1 DKD       0.096000
     31 HAL         -4.6750    -1.1340    -2.2060 ha         1 DKD       0.114500
     32 HAS         -5.4040     0.8690    -0.6730 hc         1 DKD       0.064700
     33 HASA        -4.9950     0.8000     1.0280 hc         1 DKD       0.064700
     34 HAZ         -2.9920     0.6820    -1.2790 h1         1 DKD       0.029700
     35 HAP         -0.7110    -0.3060     2.5490 ha         1 DKD       0.124500
     36 HAN          1.7700    -0.2140     2.4550 ha         1 DKD       0.091000
     37 HAO         -0.9170     1.5000    -1.3760 ha         1 DKD       0.124500
     38 HAM          1.5410     1.5910    -1.4670 ha         1 DKD       0.091000
     39 HAR          3.6720     1.6250    -0.1590 hc         1 DKD       0.037700
     40 HARA         3.7650     0.8880     1.4300 hc         1 DKD       0.037700
     41 HAQ          3.6240    -1.3930     0.3800 hc         1 DKD       0.050200
     42 HAQA         3.5300    -0.6560    -1.2080 hc         1 DKD       0.050200
     43 HAI          5.7560    -1.3700     1.6840 ha         1 DKD       0.112000
     44 HAE          8.2390    -1.2810     1.5760 ha         1 DKD       0.104500
     45 HAC          9.3700    -0.3290    -0.4320 ha         1 DKD       0.103000
     46 HAF          8.0090     0.5350    -2.3340 ha         1 DKD       0.104500
     47 HAJ          5.5260     0.4480    -2.2320 ha         1 DKD       0.112000
@<TRIPOS>BOND
     1     1     2 ar  
     2     1     6 ar  
     3     1    27 1   
     4     2     3 ar  
     5     2    28 1   
     6     3     4 ar  
     7     3    29 1   
     8     4     5 ar  
     9     4    30 1   
    10     5     6 ar  
    11     5    31 1   
    12     6     7 1   
    13     7     8 1   
    14     7    32 1   
    15     7    33 1   
    16     8     9 1   
    17     8    12 1   
    18     8    34 1   
    19     9    10 1   
    20     9    11 1   
    21    12    13 1   
    22    13    14 ar  
    23    13    16 ar  
    24    14    15 ar  
    25    14    35 1   
    26    15    18 ar  
    27    15    36 1   
    28    16    17 ar  
    29    16    37 1   
    30    17    18 ar  
    31    17    38 1   
    32    18    19 1   
    33    19    20 1   
    34    19    39 1   
    35    19    40 1   
    36    20    21 1   
    37    20    41 1   
    38    20    42 1   
    39    21    22 ar  
    40    21    26 ar  
    41    22    23 ar  
    42    22    43 1   
    43    23    24 ar  
    44    23    44 1   
    45    24    25 ar  
    46    24    45 1   
    47    25    26 ar  
    48    25    46 1   
    49    26    47 1   
@<TRIPOS>SUBSTRUCTURE
     1 DKD         1 TEMP              0 ****  ****    0 ROOT
