@<TRIPOS>MOLECULE
DKF
   22    21     1     0     0
SMALL
bcc


@<TRIPOS>ATOM
      1 C4         -66.0790   -24.9180    20.7940 c3         1 DKF       0.353900
      2 C5         -67.2900   -25.8420    20.7400 c3         1 DKF      -0.098400
      3 C6         -67.2400   -27.1100    21.5940 c3         1 DKF      -0.055400
      4 C7         -66.2850   -28.2330    21.1790 c3         1 DKF      -0.070400
      5 C8         -66.7920   -29.1750    20.0870 c3         1 DKF      -0.072400
      6 C9         -66.9890   -28.5550    18.7080 c3         1 DKF      -0.087100
      7 O4         -64.9910   -25.5200    20.1800 oh         1 DKF      -0.605300
      8 O3         -65.7010   -24.5980    22.1150 oh         1 DKF      -0.605300
      9 H1         -68.1460   -25.2470    21.0740 hc         1 DKF       0.045700
     10 H2         -67.4900   -26.0710    19.6920 hc         1 DKF       0.045700
     11 H3         -67.0070   -26.8130    22.6200 hc         1 DKF       0.035700
     12 H4         -68.2540   -27.5210    21.6380 hc         1 DKF       0.035700
     13 H5         -66.0940   -28.8460    22.0660 hc         1 DKF       0.047700
     14 H6         -65.3170   -27.8220    20.8860 hc         1 DKF       0.047700
     15 H7         -67.7320   -29.6320    20.4140 hc         1 DKF       0.031200
     16 H8         -66.0770   -29.9980    19.9970 hc         1 DKF       0.031200
     17 H9         -67.2020   -29.3270    17.9660 hc         1 DKF       0.030033
     18 H10        -67.8230   -27.8540    18.6840 hc         1 DKF       0.030033
     19 H11        -66.0960   -28.0180    18.3830 hc         1 DKF       0.030033
     20 H12        -64.3040   -24.8580    20.0480 ho         1 DKF       0.414000
     21 H13        -66.4110   -24.0890    22.5200 ho         1 DKF       0.414000
     22 H14        -66.3500   -23.9900    20.2640 h2         1 DKF       0.000700
@<TRIPOS>BOND
     1     1     2 1   
     2     1     7 1   
     3     1     8 1   
     4     1    22 1   
     5     2     3 1   
     6     2     9 1   
     7     2    10 1   
     8     3     4 1   
     9     3    11 1   
    10     3    12 1   
    11     4     5 1   
    12     4    13 1   
    13     4    14 1   
    14     5     6 1   
    15     5    15 1   
    16     5    16 1   
    17     6    17 1   
    18     6    18 1   
    19     6    19 1   
    20     7    20 1   
    21     8    21 1   
@<TRIPOS>SUBSTRUCTURE
     1 DKF         1 TEMP              0 ****  ****    0 ROOT
