@<TRIPOS>MOLECULE
DKF
   22    21     1     0     0
SMALL
No Charge or Current Charge


@<TRIPOS>ATOM
      1 C4         -66.1430   -24.7930    20.9760 c3         1 DKF       0.400300
      2 C5         -67.2270   -25.8620    20.6690 c3         1 DKF      -0.098400
      3 C6         -67.2060   -27.1710    21.5170 c3         1 DKF      -0.055400
      4 C7         -66.2200   -28.2820    21.0580 c3         1 DKF      -0.070400
      5 C8         -66.7880   -29.3040    20.0400 c3         1 DKF      -0.072400
      6 C9         -67.1890   -28.7230    18.6700 c3         1 DKF      -0.087100
      7 O4         -64.8410   -25.2940    20.7650 oh         1 DKF      -0.667500
      8 O3         -66.2080   -24.3840    22.3270 oh         1 DKF      -0.667500
      9 H1         -68.2020   -25.3830    20.8180 hc         1 DKF       0.045700
     10 H2         -67.1790   -26.1040    19.6030 hc         1 DKF       0.045700
     11 H3         -66.9830   -26.9150    22.5600 hc         1 DKF       0.035700
     12 H4         -68.2180   -27.5930    21.5340 hc         1 DKF       0.035700
     13 H5         -65.9130   -28.8450    21.9490 hc         1 DKF       0.047700
     14 H6         -65.3030   -27.8410    20.6550 hc         1 DKF       0.047700
     15 H7         -67.6560   -29.8110    20.4800 hc         1 DKF       0.031200
     16 H8         -66.0300   -30.0790    19.8750 hc         1 DKF       0.031200
     17 H9         -67.4430   -29.5320    17.9750 hc         1 DKF       0.030033
     18 H10        -68.0690   -28.0750    18.7610 hc         1 DKF       0.030033
     19 H11        -66.3660   -28.1440    18.2350 hc         1 DKF       0.030033
     20 H12        -64.2930   -24.5240    20.5070 ho         1 DKF       0.453000
     21 H13        -65.8970   -23.4550    22.3430 ho         1 DKF       0.453000
     22 H14        -66.2980   -23.9210    20.3310 h2         1 DKF       0.000700
@<TRIPOS>BOND
     1     1     2 1   
     2     1     7 1   
     3     1     8 1   
     4     1    22 1   
     5     2     3 1   
     6     2     9 1   
     7     2    10 1   
     8     3     4 1   
     9     3    11 1   
    10     3    12 1   
    11     4     5 1   
    12     4    13 1   
    13     4    14 1   
    14     5     6 1   
    15     5    15 1   
    16     5    16 1   
    17     6    17 1   
    18     6    18 1   
    19     6    19 1   
    20     7    20 1   
    21     8    21 1   
@<TRIPOS>SUBSTRUCTURE
     1 DKF         1 TEMP              0 ****  ****    0 ROOT
