@<TRIPOS>MOLECULE
DKG
   13    13     1     0     0
SMALL
abcg2


@<TRIPOS>ATOM
      1 C7           2.4280    -0.0390     0.0500 c3         1 DKG      -0.050800
      2 C4           0.9350    -0.0780     0.0310 ca         1 DKG      -0.079300
      3 C5           0.2090    -1.2500     0.0480 ca         1 DKG      -0.127000
      4 C3           0.1710     1.0940     0.0140 ca         1 DKG       0.272900
      5 N2          -1.1480     1.1190     0.0200 nb         1 DKG      -0.315000
      6 N1          -1.8300    -0.0050     0.0430 nb         1 DKG      -0.318000
      7 C6          -1.1780    -1.1550     0.0550 ca         1 DKG       0.276900
      8 H1           2.7920    -0.0840     1.0780 hc         1 DKG       0.052367
      9 H2           2.8520    -0.8880    -0.4840 hc         1 DKG       0.052367
     10 H3           2.8110     0.8780    -0.3940 hc         1 DKG       0.052367
     11 H4           0.6900    -2.2200     0.0520 ha         1 DKG       0.129000
     12 H5           0.6540     2.0640    -0.0110 h4         1 DKG       0.026100
     13 H6          -1.7950    -2.0440     0.0700 h4         1 DKG       0.027100
@<TRIPOS>BOND
     1     1     2 1   
     2     1     8 1   
     3     1     9 1   
     4     1    10 1   
     5     2     3 ar  
     6     2     4 ar  
     7     3     7 ar  
     8     3    11 1   
     9     4     5 ar  
    10     4    12 1   
    11     5     6 ar  
    12     6     7 ar  
    13     7    13 1   
@<TRIPOS>SUBSTRUCTURE
     1 DKG         1 TEMP              0 ****  ****    0 ROOT
