@<TRIPOS>MOLECULE
DKG
   13    13     1     0     0
SMALL
No Charge or Current Charge


@<TRIPOS>ATOM
      1 C7           2.4440    -0.0440     0.0540 c3         1 DKG      -0.050800
      2 C4           0.9230    -0.0510     0.0390 ca         1 DKG      -0.079300
      3 C5           0.2010    -1.2620     0.0770 ca         1 DKG      -0.127000
      4 C3           0.1810     1.1490    -0.0080 ca         1 DKG       0.272900
      5 N2          -1.1760     1.1490    -0.0190 nb         1 DKG      -0.315000
      6 N1          -1.8620    -0.0130     0.0170 nb         1 DKG      -0.318000
      7 C6          -1.2050    -1.1990     0.0640 ca         1 DKG       0.276900
      8 H1           2.8260    -0.2100     1.0680 hc         1 DKG       0.052367
      9 H2           2.8500    -0.8330    -0.5910 hc         1 DKG       0.052367
     10 H3           2.8450     0.9120    -0.3020 hc         1 DKG       0.052367
     11 H4           0.7070    -2.2230     0.1170 ha         1 DKG       0.129000
     12 H5           0.6720     2.1210    -0.0370 h4         1 DKG       0.026100
     13 H6          -1.8140    -2.1020     0.0920 h4         1 DKG       0.027100
@<TRIPOS>BOND
     1     1     2 1   
     2     1     8 1   
     3     1     9 1   
     4     1    10 1   
     5     2     3 ar  
     6     2     4 ar  
     7     3     7 ar  
     8     3    11 1   
     9     4     5 ar  
    10     4    12 1   
    11     5     6 ar  
    12     6     7 ar  
    13     7    13 1   
@<TRIPOS>SUBSTRUCTURE
     1 DKG         1 TEMP              0 ****  ****    0 ROOT
