@<TRIPOS>MOLECULE
DKI
   41    43     1     0     0
SMALL
abcg2


@<TRIPOS>ATOM
      1 FAF          6.6770    34.8340    22.6900 f          1 DKI      -0.161000
      2 CAU          7.9410    34.6660    22.2560 ca         1 DKI       0.217500
      3 CAI          8.2420    34.9080    20.9290 ca         1 DKI      -0.162000
      4 CAH          9.5550    34.7360    20.5050 ca         1 DKI      -0.042000
      5 CAJ         10.5460    34.3250    21.3900 ca         1 DKI      -0.162000
      6 CAV         10.1970    34.0910    22.7060 ca         1 DKI       0.217500
      7 FAG         11.1380    33.6890    23.5810 f          1 DKI      -0.161000
      8 CAZ          8.8980    34.2560    23.1780 ca         1 DKI      -0.053400
      9 NAQ          8.5670    33.9970    24.5240 ns         1 DKI      -0.319100
     10 CAS          8.7660    34.8750    25.5210 cs         1 DKI       0.464200
     11 SAE          9.3600    36.4250    25.2870 s          1 DKI      -0.602400
     12 NBA          8.4260    34.3600    26.7530 n          1 DKI      -0.085500
     13 NAP          7.9710    33.0380    26.8450 nc         1 DKI      -0.647800
     14 CAT          8.4410    34.9090    28.0310 cc         1 DKI       0.809400
     15 NAA          8.8160    36.1500    28.3170 nv         1 DKI      -1.067900
     16 NAO          8.0230    34.0070    28.9010 nd         1 DKI      -0.832000
     17 CAX          7.7570    32.9040    28.1350 cd         1 DKI       0.871900
     18 NAR          7.3030    31.7780    28.7520 nu         1 DKI      -0.923900
     19 CAW          7.0020    30.5340    28.2180 ca         1 DKI       0.378000
     20 CAL          7.1170    30.2290    26.8550 ca         1 DKI      -0.184000
     21 CAN          6.7940    28.9590    26.4020 ca         1 DKI       0.022000
     22 CAK          6.5560    29.5420    29.1070 ca         1 DKI      -0.184000
     23 CAM          6.2330    28.2810    28.6510 ca         1 DKI       0.022000
     24 CAY          6.3490    27.9880    27.2920 ca         1 DKI      -0.373500
     25 SBB          5.9710    26.3660    26.7090 sy         1 DKI       1.164600
     26 OAC          5.0050    25.7790    27.6090 o          1 DKI      -0.538500
     27 OAD          5.6750    26.4510    25.2980 o          1 DKI      -0.538500
     28 NAB          7.3260    25.4400    26.8320 n8         1 DKI      -0.989100
     29 HAI          7.4620    35.2260    20.2520 ha         1 DKI       0.144500
     30 HAH          9.8090    34.9220    19.4710 ha         1 DKI       0.129000
     31 HAJ         11.5710    34.1840    21.0740 ha         1 DKI       0.144500
     32 HAQ          8.1810    33.0940    24.7820 hn         1 DKI       0.367500
     33 HAA1         9.1430    36.7550    27.5750 hn         1 DKI       0.537000
     34 HAA2         8.8020    36.4510    29.2780 hn         1 DKI       0.537000
     35 HAR          7.1980    31.8780    29.7510 hn         1 DKI       0.521000
     36 HAL          7.4560    30.9770    26.1580 ha         1 DKI       0.132500
     37 HAN          6.8820    28.7300    25.3490 ha         1 DKI       0.135500
     38 HAK          6.4640    29.7760    30.1610 ha         1 DKI       0.132500
     39 HAM          5.8860    27.5280    29.3450 ha         1 DKI       0.135500
     40 HAB1         7.6310    25.3220    27.7930 hn         1 DKI       0.471000
     41 HAB2         8.0800    25.7790    26.2420 hn         1 DKI       0.471000
@<TRIPOS>BOND
     1     1     2 1   
     2     2     3 ar  
     3     2     8 ar  
     4     3     4 ar  
     5     3    29 1   
     6     4     5 ar  
     7     4    30 1   
     8     5     6 ar  
     9     5    31 1   
    10     6     7 1   
    11     6     8 ar  
    12     8     9 1   
    13     9    10 1   
    14     9    32 1   
    15    10    11 2   
    16    10    12 1   
    17    12    13 1   
    18    12    14 1   
    19    13    17 2   
    20    14    15 1   
    21    14    16 2   
    22    15    33 1   
    23    15    34 1   
    24    16    17 1   
    25    17    18 1   
    26    18    19 1   
    27    18    35 1   
    28    19    20 ar  
    29    19    22 ar  
    30    20    21 ar  
    31    20    36 1   
    32    21    24 ar  
    33    21    37 1   
    34    22    23 ar  
    35    22    38 1   
    36    23    24 ar  
    37    23    39 1   
    38    24    25 1   
    39    25    26 2   
    40    25    27 2   
    41    25    28 1   
    42    28    40 1   
    43    28    41 1   
@<TRIPOS>SUBSTRUCTURE
     1 DKI         1 TEMP              0 ****  ****    0 ROOT
