@<TRIPOS>MOLECULE
DKI
   41    43     1     0     0
SMALL
No Charge or Current Charge


@<TRIPOS>ATOM
      1 FAF          6.7570    33.7830    22.5690 f          1 DKI      -0.161000
      2 CAU          7.9770    34.2090    22.1690 ca         1 DKI       0.217500
      3 CAI          8.2250    34.3770    20.7970 ca         1 DKI      -0.162000
      4 CAH          9.4850    34.8150    20.3570 ca         1 DKI      -0.042000
      5 CAJ         10.4970    35.0720    21.2970 ca         1 DKI      -0.162000
      6 CAV         10.2480    34.9070    22.6700 ca         1 DKI       0.217500
      7 FAG         11.2660    35.0970    23.5390 f          1 DKI      -0.161000
      8 CAZ          8.9750    34.4890    23.1260 ca         1 DKI      -0.053400
      9 NAQ          8.6860    34.3040    24.5090 ns         1 DKI      -0.319100
     10 CAS          8.9060    35.0720    25.6250 cs         1 DKI       0.464200
     11 SAE          9.4770    36.6530    25.5640 s          1 DKI      -0.602400
     12 NBA          8.5190    34.3740    26.7620 n          1 DKI      -0.085500
     13 NAP          8.0690    33.0820    26.7930 nc         1 DKI      -0.647800
     14 CAT          8.5240    34.7700    28.0770 cc         1 DKI       0.809400
     15 NAA          8.8600    35.9690    28.5370 nv         1 DKI      -1.067900
     16 NAO          8.1370    33.8720    28.9300 nd         1 DKI      -0.832000
     17 CAX          7.8750    32.8470    28.0700 cd         1 DKI       0.871900
     18 NAR          7.4070    31.7360    28.6160 nu         1 DKI      -0.923900
     19 CAW          7.0370    30.4770    28.1530 ca         1 DKI       0.378000
     20 CAL          7.3020    30.0310    26.8450 ca         1 DKI      -0.184000
     21 CAN          6.9110    28.7470    26.4330 ca         1 DKI       0.022000
     22 CAK          6.3850    29.6150    29.0480 ca         1 DKI      -0.184000
     23 CAM          5.9880    28.3290    28.6490 ca         1 DKI       0.022000
     24 CAY          6.2510    27.8910    27.3370 ca         1 DKI      -0.373500
     25 SBB          5.7440    26.2530    26.8250 sy         1 DKI       1.164600
     26 OAC          4.6260    25.7810    27.6410 o          1 DKI      -0.538500
     27 OAD          5.7690    26.1550    25.3680 o          1 DKI      -0.538500
     28 NAB          7.0310    25.3710    27.3030 n8         1 DKI      -0.989100
     29 HAI          7.4390    34.1650    20.0770 ha         1 DKI       0.144500
     30 HAH          9.6800    34.9420    19.2930 ha         1 DKI       0.129000
     31 HAJ         11.4820    35.3890    20.9630 ha         1 DKI       0.144500
     32 HAQ          8.2470    33.4170    24.7440 hn         1 DKI       0.367500
     33 HAA1         9.3820    36.5520    27.8910 hn         1 DKI       0.537000
     34 HAA2         9.1500    35.9830    29.5060 hn         1 DKI       0.537000
     35 HAR          7.2730    31.8990    29.6050 hn         1 DKI       0.521000
     36 HAL          7.8200    30.6640    26.1350 ha         1 DKI       0.132500
     37 HAN          7.1260    28.4260    25.4140 ha         1 DKI       0.135500
     38 HAK          6.1770    29.9420    30.0620 ha         1 DKI       0.132500
     39 HAM          5.4810    27.6790    29.3620 ha         1 DKI       0.135500
     40 HAB1         7.7410    26.0890    27.4180 hn         1 DKI       0.471000
     41 HAB2         7.2830    24.9150    26.4290 hn         1 DKI       0.471000
@<TRIPOS>BOND
     1     1     2 1   
     2     2     3 ar  
     3     2     8 ar  
     4     3     4 ar  
     5     3    29 1   
     6     4     5 ar  
     7     4    30 1   
     8     5     6 ar  
     9     5    31 1   
    10     6     7 1   
    11     6     8 ar  
    12     8     9 1   
    13     9    10 1   
    14     9    32 1   
    15    10    11 2   
    16    10    12 1   
    17    12    13 1   
    18    12    14 1   
    19    13    17 2   
    20    14    15 1   
    21    14    16 2   
    22    15    33 1   
    23    15    34 1   
    24    16    17 1   
    25    17    18 1   
    26    18    19 1   
    27    18    35 1   
    28    19    20 ar  
    29    19    22 ar  
    30    20    21 ar  
    31    20    36 1   
    32    21    24 ar  
    33    21    37 1   
    34    22    23 ar  
    35    22    38 1   
    36    23    24 ar  
    37    23    39 1   
    38    24    25 1   
    39    25    26 2   
    40    25    27 2   
    41    25    28 1   
    42    28    40 1   
    43    28    41 1   
@<TRIPOS>SUBSTRUCTURE
     1 DKI         1 TEMP              0 ****  ****    0 ROOT
