@<TRIPOS>MOLECULE
DKJ
   61    62     1     0     0
SMALL
No Charge or Current Charge


@<TRIPOS>ATOM
      1 O1          -2.2380     2.9610    -0.6870 o          1 DKJ      -0.602100
      2 C7          -2.2570     2.3680     0.3790 c          1 DKJ       0.602100
      3 O2           2.7080     0.7790     1.6110 os         1 DKJ      -0.475000
      4 C6          -4.8070    -2.4220     0.3360 ca         1 DKJ       0.198500
      5 C1          -4.7740     0.1260    -0.8290 ca         1 DKJ      -0.173000
      6 N1           2.2650     1.9630    -1.0090 n7         1 DKJ      -0.840400
      7 C5          -5.9340    -0.3480    -0.1980 ca         1 DKJ       0.198500
      8 C4          -3.6160    -0.6750    -0.8800 ca         1 DKJ      -0.021300
      9 C3          -5.9560    -1.6220     0.3860 ca         1 DKJ      -0.202000
     10 C2          -3.6410    -1.9550    -0.2920 ca         1 DKJ      -0.173000
     11 C8           1.6390     0.2720     0.7750 c6         1 DKJ       0.122600
     12 C9           1.1320     1.3650    -0.2270 c6         1 DKJ       0.108500
     13 C10          3.4190     2.3740    -0.1450 c6         1 DKJ       0.155500
     14 C11          3.8580     1.2500     0.8670 c6         1 DKJ       0.344300
     15 C12         -2.8150     2.9910     1.6490 c3         1 DKJ      -0.182100
     16 C13          3.0820     3.7060     0.5800 c3         1 DKJ      -0.083100
     17 C14          6.7050    -1.4610    -0.8730 c3         1 DKJ      -0.082433
     18 C15          4.4680    -2.6550    -0.7550 c3         1 DKJ      -0.082433
     19 C16          6.2430    -3.1090     0.9840 c3         1 DKJ      -0.082433
     20 C17         -2.3460    -0.1620    -1.5510 c3         1 DKJ      -0.052100
     21 C19          0.0410     0.8190    -1.2200 c3         1 DKJ       0.157300
     22 C20         -1.2370     0.2250    -0.5340 c3         1 DKJ       0.099700
     23 C21          5.6130    -2.0180     0.0800 c3         1 DKJ      -0.048000
     24 N2          -1.7760     1.0860     0.5360 ns         1 DKJ      -0.509900
     25 O3           0.6020    -0.1480    -2.1390 oh         1 DKJ      -0.650000
     26 O4           4.4600     0.1410     0.1690 os         1 DKJ      -0.487000
     27 F1          -7.0370     0.4290    -0.1520 f          1 DKJ      -0.173000
     28 F2          -4.8210    -3.6500     0.8970 f          1 DKJ      -0.173000
     29 H1          -4.7760     1.1180    -1.2730 ha         1 DKJ       0.141000
     30 H33          2.6030     1.2230    -1.6380 hn         1 DKJ       0.432000
     31 H3          -6.8560    -1.9850     0.8730 ha         1 DKJ       0.151000
     32 H2          -2.7590    -2.5890    -0.3190 ha         1 DKJ       0.141000
     33 H5           1.9980    -0.6130     0.2300 h1         1 DKJ       0.043700
     34 H4           0.8140    -0.0500     1.4260 h1         1 DKJ       0.043700
     35 H6           0.6630     2.1630     0.3660 h1         1 DKJ       0.080700
     36 H7           4.2800     2.5840    -0.7970 h1         1 DKJ       0.075700
     37 H8           4.5960     1.6740     1.5650 h2         1 DKJ       0.069700
     38 H10         -3.5980     2.3380     2.0510 hc         1 DKJ       0.062700
     39 H9          -2.0510     2.9500     2.4340 hc         1 DKJ       0.062700
     40 H11         -3.1810     4.0120     1.4930 hc         1 DKJ       0.062700
     41 H12          2.2670     3.5860     1.3030 hc         1 DKJ       0.043700
     42 H13          3.9540     4.0830     1.1270 hc         1 DKJ       0.043700
     43 H14          2.7830     4.4810    -0.1370 hc         1 DKJ       0.043700
     44 H17          7.1410    -2.2630    -1.4800 hc         1 DKJ       0.035589
     45 H15          6.2920    -0.7110    -1.5580 hc         1 DKJ       0.035589
     46 H16          7.5160    -0.9890    -0.3040 hc         1 DKJ       0.035589
     47 H20          4.8430    -3.4910    -1.3590 hc         1 DKJ       0.035589
     48 H19          3.6750    -3.0390    -0.1020 hc         1 DKJ       0.035589
     49 H18          4.0200    -1.9250    -1.4390 hc         1 DKJ       0.035589
     50 H23          7.0600    -2.6950     1.5880 hc         1 DKJ       0.035589
     51 H21          5.4970    -3.5310     1.6690 hc         1 DKJ       0.035589
     52 H22          6.6510    -3.9310     0.3820 hc         1 DKJ       0.035589
     53 H25         -1.9610    -0.9310    -2.2320 hc         1 DKJ       0.077200
     54 H24         -2.5770     0.7040    -2.1830 hc         1 DKJ       0.077200
     55 H26          4.3060    -1.3070     1.6750 h1         1 DKJ       0.028200
     56 H27          5.8650    -0.4620     1.5960 h1         1 DKJ       0.028200
     57 H28         -0.2900     1.6970    -1.7930 h1         1 DKJ       0.119700
     58 H29         -0.9320    -0.7050    -0.0370 h1         1 DKJ       0.038700
     59 H31         -1.8610     0.6910     1.4650 hn         1 DKJ       0.315500
     60 H32          0.8470    -0.9440    -1.6220 ho         1 DKJ       0.433000
     61 C18          5.0520    -0.8830     0.9900 c3         1 DKJ       0.172600
@<TRIPOS>BOND
     1     1     2 2   
     2     2    15 1   
     3     2    24 1   
     4     3    11 1   
     5     3    14 1   
     6     4     9 ar  
     7     4    10 ar  
     8     4    28 1   
     9     5     7 ar  
    10     5     8 ar  
    11     5    29 1   
    12     6    12 1   
    13     6    13 1   
    14     6    30 1   
    15     7     9 ar  
    16     7    27 1   
    17     8    10 ar  
    18     8    20 1   
    19     9    31 1   
    20    10    32 1   
    21    11    12 1   
    22    11    33 1   
    23    11    34 1   
    24    12    21 1   
    25    12    35 1   
    26    13    14 1   
    27    13    16 1   
    28    13    36 1   
    29    14    26 1   
    30    14    37 1   
    31    15    38 1   
    32    15    39 1   
    33    15    40 1   
    34    16    41 1   
    35    16    42 1   
    36    16    43 1   
    37    17    23 1   
    38    17    44 1   
    39    17    45 1   
    40    17    46 1   
    41    18    23 1   
    42    18    47 1   
    43    18    48 1   
    44    18    49 1   
    45    19    23 1   
    46    19    50 1   
    47    19    51 1   
    48    19    52 1   
    49    20    22 1   
    50    20    53 1   
    51    20    54 1   
    52    21    22 1   
    53    21    25 1   
    54    21    57 1   
    55    22    24 1   
    56    22    58 1   
    57    23    61 1   
    58    24    59 1   
    59    25    60 1   
    60    26    61 1   
    61    55    61 1   
    62    56    61 1   
@<TRIPOS>SUBSTRUCTURE
     1 DKJ         1 TEMP              0 ****  ****    0 ROOT
