@<TRIPOS>MOLECULE
DKJ
   61    62     1     0     0
SMALL
abcg2


@<TRIPOS>ATOM
      1 O1          -2.2080     2.8260    -0.7960 o          1 DKJ      -0.602100
      2 C7          -2.2200     2.3020     0.3090 c          1 DKJ       0.602100
      3 O2           2.5990     0.5900     1.6150 os         1 DKJ      -0.475000
      4 C6          -4.9720    -2.1620     0.3930 ca         1 DKJ       0.198500
      5 C1          -4.6970     0.3120    -0.7740 ca         1 DKJ      -0.173000
      6 N1           2.1960     1.6790    -0.9650 n7         1 DKJ      -0.840400
      7 C5          -5.8590    -0.0480    -0.1190 ca         1 DKJ       0.198500
      8 C4          -3.6470    -0.6000    -0.8400 ca         1 DKJ      -0.021300
      9 C3          -6.0330    -1.2800     0.4790 ca         1 DKJ      -0.202000
     10 C2          -3.7910    -1.8530    -0.2500 ca         1 DKJ      -0.173000
     11 C8           1.5370     0.0930     0.8130 c6         1 DKJ       0.122600
     12 C9           1.0810     1.1410    -0.1990 c6         1 DKJ       0.108500
     13 C10          3.2910     2.1340    -0.1160 c6         1 DKJ       0.155500
     14 C11          3.7060     1.0520     0.8820 c6         1 DKJ       0.344300
     15 C12         -2.7970     2.9970     1.5170 c3         1 DKJ      -0.182100
     16 C13          2.9450     3.4350     0.5970 c3         1 DKJ      -0.083100
     17 C14          6.7810    -1.0840    -0.8060 c3         1 DKJ      -0.082433
     18 C15          4.8180    -2.6380    -0.9150 c3         1 DKJ      -0.082433
     19 C16          6.5080    -2.8760     0.9080 c3         1 DKJ      -0.082433
     20 C17         -2.3560    -0.2250    -1.5060 c3         1 DKJ      -0.052100
     21 C19          0.0120     0.6380    -1.1730 c3         1 DKJ       0.157300
     22 C20         -1.2700     0.1450    -0.4760 c3         1 DKJ       0.099700
     23 C21          5.7670    -1.8810     0.0160 c3         1 DKJ      -0.048000
     24 N2          -1.7470     1.0630     0.5390 ns         1 DKJ      -0.509900
     25 O3           0.5110    -0.3590    -2.0420 oh         1 DKJ      -0.650000
     26 O4           4.3180     0.0330     0.1630 os         1 DKJ      -0.487000
     27 F1          -6.8660     0.8350    -0.0600 f          1 DKJ      -0.173000
     28 F2          -5.1050    -3.3700     0.9580 f          1 DKJ      -0.173000
     29 H1          -4.6120     1.2910    -1.2270 ha         1 DKJ       0.141000
     30 H33          2.5450     0.9590    -1.5870 hn         1 DKJ       0.432000
     31 H3          -6.9520    -1.5430     0.9870 ha         1 DKJ       0.151000
     32 H2          -2.9920    -2.5840    -0.2950 ha         1 DKJ       0.141000
     33 H5           1.8450    -0.8330     0.3100 h1         1 DKJ       0.043700
     34 H4           0.7360    -0.1610     1.5100 h1         1 DKJ       0.043700
     35 H6           0.6390     1.9690     0.3610 h1         1 DKJ       0.080700
     36 H7           4.1460     2.3260    -0.7690 h1         1 DKJ       0.075700
     37 H8           4.3930     1.4590     1.6390 h2         1 DKJ       0.069700
     38 H10         -3.8850     2.9160     1.4870 hc         1 DKJ       0.062700
     39 H9          -2.4560     2.5760     2.4620 hc         1 DKJ       0.062700
     40 H11         -2.5470     4.0550     1.4920 hc         1 DKJ       0.062700
     41 H12          2.1620     3.3090     1.3440 hc         1 DKJ       0.043700
     42 H13          3.8220     3.8350     1.1070 hc         1 DKJ       0.043700
     43 H14          2.6090     4.1790    -0.1250 hc         1 DKJ       0.043700
     44 H17          7.3990    -1.7560    -1.4040 hc         1 DKJ       0.035589
     45 H15          6.2940    -0.3870    -1.4890 hc         1 DKJ       0.035589
     46 H16          7.4490    -0.5090    -0.1600 hc         1 DKJ       0.035589
     47 H20          5.3740    -3.3120    -1.5700 hc         1 DKJ       0.035589
     48 H19          4.1070    -3.2410    -0.3460 hc         1 DKJ       0.035589
     49 H18          4.2470    -1.9560    -1.5470 hc         1 DKJ       0.035589
     50 H23          7.1980    -2.3680     1.5870 hc         1 DKJ       0.035589
     51 H21          5.8160    -3.4650     1.5140 hc         1 DKJ       0.035589
     52 H22          7.0930    -3.5740     0.3060 hc         1 DKJ       0.035589
     53 H25         -1.9890    -1.0650    -2.0950 hc         1 DKJ       0.077200
     54 H24         -2.5140     0.6050    -2.1950 hc         1 DKJ       0.077200
     55 H26          4.2550    -1.5430     1.5150 h1         1 DKJ       0.028200
     56 H27          5.6550    -0.4720     1.6500 h1         1 DKJ       0.028200
     57 H28         -0.2400     1.4810    -1.8210 h1         1 DKJ       0.119700
     58 H29         -1.0220    -0.7680     0.0730 h1         1 DKJ       0.038700
     59 H31         -1.8220     0.7020     1.4740 hn         1 DKJ       0.315500
     60 H32          0.6320    -1.1810    -1.5550 ho         1 DKJ       0.433000
     61 C18          4.9730    -0.9520     0.9320 c3         1 DKJ       0.172600
@<TRIPOS>BOND
     1     1     2 2   
     2     2    15 1   
     3     2    24 1   
     4     3    11 1   
     5     3    14 1   
     6     4     9 ar  
     7     4    10 ar  
     8     4    28 1   
     9     5     7 ar  
    10     5     8 ar  
    11     5    29 1   
    12     6    12 1   
    13     6    13 1   
    14     6    30 1   
    15     7     9 ar  
    16     7    27 1   
    17     8    10 ar  
    18     8    20 1   
    19     9    31 1   
    20    10    32 1   
    21    11    12 1   
    22    11    33 1   
    23    11    34 1   
    24    12    21 1   
    25    12    35 1   
    26    13    14 1   
    27    13    16 1   
    28    13    36 1   
    29    14    26 1   
    30    14    37 1   
    31    15    38 1   
    32    15    39 1   
    33    15    40 1   
    34    16    41 1   
    35    16    42 1   
    36    16    43 1   
    37    17    23 1   
    38    17    44 1   
    39    17    45 1   
    40    17    46 1   
    41    18    23 1   
    42    18    47 1   
    43    18    48 1   
    44    18    49 1   
    45    19    23 1   
    46    19    50 1   
    47    19    51 1   
    48    19    52 1   
    49    20    22 1   
    50    20    53 1   
    51    20    54 1   
    52    21    22 1   
    53    21    25 1   
    54    21    57 1   
    55    22    24 1   
    56    22    58 1   
    57    23    61 1   
    58    24    59 1   
    59    25    60 1   
    60    26    61 1   
    61    55    61 1   
    62    56    61 1   
@<TRIPOS>SUBSTRUCTURE
     1 DKJ         1 TEMP              0 ****  ****    0 ROOT
