@<TRIPOS>MOLECULE
DKK
   51    52     1     0     0
SMALL
bcc


@<TRIPOS>ATOM
      1 C1           7.2830    -0.2660     1.0040 c2         1 DKK       0.778100
      2 O5           7.0830     1.0150    -0.9210 os         1 DKK      -0.192100
      3 C7           5.0100     2.0930    -1.3830 c3         1 DKK       0.096000
      4 C9           2.9450     1.0620    -0.5860 c          1 DKK       0.672100
      5 C11          2.3880     0.0130     0.3730 c3         1 DKK      -0.122100
      6 C12          1.0820    -0.5340    -0.1100 ca         1 DKK      -0.010300
      7 C13          1.0190    -1.6620    -0.9480 ca         1 DKK      -0.056000
      8 C14         -0.2120    -2.1400    -1.3920 ca         1 DKK      -0.052000
      9 C15         -1.3870    -1.5210    -1.0210 ca         1 DKK      -0.204000
     10 C16         -1.3690    -0.3970    -0.1830 ca         1 DKK       0.191600
     11 C19          2.2150    -2.3090    -1.3580 cg         1 DKK       0.245800
     12 C22         -3.8120    -0.0760    -0.1700 c3         1 DKK       0.177800
     13 C30         -8.4600     0.5370    -0.1320 ca         1 DKK      -0.094000
     14 C31         -7.1890     0.9400     0.2580 ca         1 DKK      -0.202300
     15 N2           6.0400    -0.5550     0.9300 n2         1 DKK      -0.889100
     16 N3           8.2080    -0.8300     1.8350 nv         1 DKK      -0.960800
     17 N4           7.8280     0.7250     0.1960 nu         1 DKK      -0.591700
     18 C6           6.4020     2.2640    -0.8150 c3         1 DKK       0.112400
     19 N8           4.2760     1.1210    -0.6060 ns         1 DKK      -0.582900
     20 O10          2.2070     1.7900    -1.2370 o          1 DKK      -0.621100
     21 C17         -0.1050     0.0610     0.2280 ca         1 DKK       0.067900
     22 F18         -0.0890     1.1460     1.0240 f          1 DKK      -0.143900
     23 N20          3.1870    -2.8340    -1.6920 n1         1 DKK      -0.376800
     24 N21         -2.4800     0.2460     0.2580 nu         1 DKK      -0.760600
     25 C23         -4.8260     0.2780     0.9020 c3         1 DKK       0.380300
     26 F24         -4.5370    -0.3900     2.0520 f          1 DKK      -0.227300
     27 F25         -4.7200     1.6030     1.2080 f          1 DKK      -0.227300
     28 C26         -6.2400    -0.0440     0.4840 ca         1 DKK       0.331600
     29 N27         -6.4790    -1.3410     0.3350 nb         1 DKK      -0.650000
     30 C28         -7.6940    -1.7150    -0.0370 ca         1 DKK       0.405200
     31 C29         -8.7220    -0.8140    -0.2810 ca         1 DKK      -0.228300
     32 H7           4.5070     3.0610    -1.3570 h1         1 DKK       0.056200
     33 H7A          5.0670     1.7970    -2.4360 h1         1 DKK       0.056200
     34 H11          3.1090    -0.7930     0.5210 hc         1 DKK       0.076200
     35 H11A         2.2720     0.4890     1.3490 hc         1 DKK       0.076200
     36 H14         -0.2500    -3.0040    -2.0420 ha         1 DKK       0.142000
     37 H15         -2.3210    -1.9140    -1.3950 ha         1 DKK       0.139000
     38 H22         -4.0940     0.4340    -1.0990 h1         1 DKK       0.071700
     39 H22A        -3.9060    -1.1450    -0.3550 h1         1 DKK       0.071700
     40 H31         -6.9600     1.9880     0.3760 ha         1 DKK       0.160000
     41 HN2          5.7760    -1.2410     1.6270 hn         1 DKK       0.393400
     42 HN3          7.8480    -1.2930     2.6540 hn         1 DKK       0.411300
     43 HN3A         9.0490    -0.3070     2.0240 hn         1 DKK       0.411300
     44 HN4          8.7900     0.5690    -0.0780 hn         1 DKK       0.418800
     45 H6           6.3510     2.5810     0.2290 h1         1 DKK       0.052700
     46 H6A          6.9380     3.0340    -1.3790 h1         1 DKK       0.052700
     47 HN8          4.8320     0.4340    -0.0730 hn         1 DKK       0.375500
     48 HN21        -2.3430     1.1780     0.6170 hn         1 DKK       0.450800
     49 H28         -7.8600    -2.7800    -0.1480 h4         1 DKK       0.027100
     50 H29         -9.6970    -1.1690    -0.5840 ha         1 DKK       0.147000
     51 H30         -9.2300     1.2740    -0.3170 ha         1 DKK       0.144000
@<TRIPOS>BOND
     1     1    15 2   
     2     1    16 1   
     3     1    17 1   
     4     2    17 1   
     5     2    18 1   
     6     3    18 1   
     7     3    19 1   
     8     3    32 1   
     9     3    33 1   
    10     4     5 1   
    11     4    19 1   
    12     4    20 2   
    13     5     6 1   
    14     5    34 1   
    15     5    35 1   
    16     6     7 ar  
    17     6    21 ar  
    18     7     8 ar  
    19     7    11 1   
    20     8     9 ar  
    21     8    36 1   
    22     9    10 ar  
    23     9    37 1   
    24    10    21 ar  
    25    10    24 1   
    26    11    23 3   
    27    12    24 1   
    28    12    25 1   
    29    12    38 1   
    30    12    39 1   
    31    13    14 ar  
    32    13    31 ar  
    33    13    51 1   
    34    14    28 ar  
    35    14    40 1   
    36    15    41 1   
    37    16    42 1   
    38    16    43 1   
    39    17    44 1   
    40    18    45 1   
    41    18    46 1   
    42    19    47 1   
    43    21    22 1   
    44    24    48 1   
    45    25    26 1   
    46    25    27 1   
    47    25    28 1   
    48    28    29 ar  
    49    29    30 ar  
    50    30    31 ar  
    51    30    49 1   
    52    31    50 1   
@<TRIPOS>SUBSTRUCTURE
     1 DKK         1 TEMP              0 ****  ****    0 ROOT
