@<TRIPOS>MOLECULE
DKK
   51    52     1     0     0
SMALL
No Charge or Current Charge


@<TRIPOS>ATOM
      1 C1           7.2520    -0.6260     0.7020 c2         1 DKK       0.778100
      2 O5           6.8400     0.4190    -1.3940 os         1 DKK      -0.215300
      3 C7           5.1240     2.1090    -1.4420 c3         1 DKK       0.096000
      4 C9           3.0200     1.6160    -0.1450 c          1 DKK       0.605100
      5 C11          2.4020     0.6860     0.9020 c3         1 DKK      -0.122100
      6 C12          1.1720    -0.0510     0.3420 ca         1 DKK      -0.010300
      7 C13          1.3080    -1.1940    -0.4910 ca         1 DKK      -0.056000
      8 C14          0.1620    -1.8410    -0.9900 ca         1 DKK      -0.034000
      9 C15         -1.1210    -1.3690    -0.6750 ca         1 DKK      -0.186000
     10 C16         -1.2800    -0.2380     0.1410 ca         1 DKK       0.330000
     11 C19          2.5960    -1.7230    -0.8590 cg         1 DKK       0.335000
     12 C22         -3.8770    -0.3150     0.0190 c3         1 DKK       0.177800
     13 C30         -8.8960     0.0370     0.1470 ca         1 DKK      -0.076000
     14 C31         -7.6520     0.5500     0.5510 ca         1 DKK      -0.119000
     15 N2           6.0840    -0.4430     1.1190 n2         1 DKK      -0.889100
     16 N3           8.1980    -1.3060     1.3200 nv         1 DKK      -1.071200
     17 N4           7.7780    -0.0890    -0.4260 nu         1 DKK      -0.646900
     18 C6           6.6300     1.8420    -1.2540 c3         1 DKK       0.135600
     19 N8           4.3260     1.3510    -0.4730 ns         1 DKK      -0.515900
     20 O10          2.4050     2.5460    -0.6470 o          1 DKK      -0.621100
     21 C17         -0.1300     0.4170     0.6450 ca         1 DKK       0.103000
     22 F18         -0.2880     1.5140     1.4310 f          1 DKK      -0.179000
     23 N20          3.6320    -2.1630    -1.1690 n1         1 DKK      -0.466000
     24 N21         -2.5660     0.2380     0.4540 nu         1 DKK      -0.954200
     25 C23         -5.0990     0.4850     0.5690 c3         1 DKK       0.137700
     26 F24         -5.0230     0.5030     1.9240 f          1 DKK      -0.106000
     27 F25         -4.9780     1.7760     0.1720 f          1 DKK      -0.106000
     28 C26         -6.4630    -0.0810     0.1230 ca         1 DKK       0.266300
     29 N27         -6.4860    -1.1820    -0.6770 nb         1 DKK      -0.650000
     30 C28         -7.6870    -1.6740    -1.0650 ca         1 DKK       0.339900
     31 C29         -8.9080    -1.0980    -0.6780 ca         1 DKK      -0.145000
     32 H7           4.9310     3.1820    -1.3140 h1         1 DKK       0.056200
     33 H7A          4.8220     1.8220    -2.4580 h1         1 DKK       0.056200
     34 H11          3.1520    -0.0270     1.2610 hc         1 DKK       0.076200
     35 H11A         2.1270     1.3020     1.7640 hc         1 DKK       0.076200
     36 H14          0.2630    -2.7180    -1.6280 ha         1 DKK       0.124000
     37 H15         -1.9870    -1.8890    -1.0740 ha         1 DKK       0.121000
     38 H22         -3.9290    -0.3190    -1.0790 h1         1 DKK       0.071700
     39 H22A        -3.9660    -1.3590     0.3520 h1         1 DKK       0.071700
     40 H31         -7.6050     1.4280     1.1900 ha         1 DKK       0.142000
     41 HN2          5.9800    -0.9690     1.9920 hn         1 DKK       0.393400
     42 HN3          7.9720    -1.5180     2.2820 hn         1 DKK       0.466500
     43 HN3A         9.1100    -0.8810     1.2110 hn         1 DKK       0.466500
     44 HN4          8.3820    -0.7630    -0.8880 hn         1 DKK       0.474000
     45 H6           6.9240     2.1970    -0.2580 h1         1 DKK       0.052700
     46 H6A          7.2100     2.3960    -2.0020 h1         1 DKK       0.052700
     47 HN8          4.7920     0.5910     0.0280 hn         1 DKK       0.375500
     48 HN21        -2.5870     1.0670     1.0530 hn         1 DKK       0.506000
     49 H28         -7.6670    -2.5560    -1.7050 h4         1 DKK       0.027100
     50 H29         -9.8450    -1.5310    -1.0170 ha         1 DKK       0.129000
     51 H30         -9.8240     0.5080     0.4640 ha         1 DKK       0.126000
@<TRIPOS>BOND
     1     1    15 2   
     2     1    16 1   
     3     1    17 1   
     4     2    17 1   
     5     2    18 1   
     6     3    18 1   
     7     3    19 1   
     8     3    32 1   
     9     3    33 1   
    10     4     5 1   
    11     4    19 1   
    12     4    20 2   
    13     5     6 1   
    14     5    34 1   
    15     5    35 1   
    16     6     7 ar  
    17     6    21 ar  
    18     7     8 ar  
    19     7    11 1   
    20     8     9 ar  
    21     8    36 1   
    22     9    10 ar  
    23     9    37 1   
    24    10    21 ar  
    25    10    24 1   
    26    11    23 3   
    27    12    24 1   
    28    12    25 1   
    29    12    38 1   
    30    12    39 1   
    31    13    14 ar  
    32    13    31 ar  
    33    13    51 1   
    34    14    28 ar  
    35    14    40 1   
    36    15    41 1   
    37    16    42 1   
    38    16    43 1   
    39    17    44 1   
    40    18    45 1   
    41    18    46 1   
    42    19    47 1   
    43    21    22 1   
    44    24    48 1   
    45    25    26 1   
    46    25    27 1   
    47    25    28 1   
    48    28    29 ar  
    49    29    30 ar  
    50    30    31 ar  
    51    30    49 1   
    52    31    50 1   
@<TRIPOS>SUBSTRUCTURE
     1 DKK         1 TEMP              0 ****  ****    0 ROOT
