@<TRIPOS>MOLECULE
DKL
   25    24     1     0     0
SMALL
bcc


@<TRIPOS>ATOM
      1 C4         -21.2240   -51.0320   -21.7200 c3         1 DKL       0.353900
      2 C5         -20.3190   -49.9020   -22.1880 c3         1 DKL      -0.098400
      3 C6         -18.8090   -50.1400   -22.1390 c3         1 DKL      -0.062400
      4 C7         -18.1790   -50.0380   -20.7520 c3         1 DKL      -0.074400
      5 C8         -16.6610   -50.2090   -20.7220 c3         1 DKL      -0.071400
      6 C9         -15.8620   -49.1220   -21.4550 c3         1 DKL      -0.074400
      7 C10        -15.4840   -49.4680   -22.8920 c3         1 DKL      -0.089100
      8 O4         -20.9270   -52.1750   -22.4510 oh         1 DKL      -0.606800
      9 O3         -21.0730   -51.3530   -20.3550 oh         1 DKL      -0.606800
     10 H1         -20.6090   -49.6720   -23.2170 hc         1 DKL       0.043700
     11 H2         -20.5690   -49.0050   -21.6110 hc         1 DKL       0.043700
     12 H3         -18.5630   -51.1080   -22.5850 hc         1 DKL       0.046700
     13 H4         -18.3500   -49.3940   -22.7920 hc         1 DKL       0.046700
     14 H5         -18.4320   -49.0630   -20.3190 hc         1 DKL       0.038700
     15 H6         -18.6260   -50.7840   -20.0930 hc         1 DKL       0.038700
     16 H7         -16.3950   -51.1930   -21.1220 hc         1 DKL       0.038700
     17 H8         -16.3550   -50.2250   -19.6720 hc         1 DKL       0.038700
     18 H9         -14.9410   -48.9210   -20.9030 hc         1 DKL       0.034200
     19 H10        -16.4250   -48.1840   -21.4380 hc         1 DKL       0.034200
     20 H11        -14.8970   -48.6700   -23.3490 hc         1 DKL       0.030700
     21 H12        -14.8820   -50.3790   -22.9250 hc         1 DKL       0.030700
     22 H13        -16.3580   -49.6320   -23.5210 hc         1 DKL       0.030700
     23 H14        -21.6260   -52.8240   -22.3180 ho         1 DKL       0.415500
     24 H15        -21.2740   -50.5690   -19.8340 ho         1 DKL       0.415500
     25 H16        -22.2670   -50.7220   -21.9020 h2         1 DKL       0.003700
@<TRIPOS>BOND
     1     1     2 1   
     2     1     8 1   
     3     1     9 1   
     4     1    25 1   
     5     2     3 1   
     6     2    10 1   
     7     2    11 1   
     8     3     4 1   
     9     3    12 1   
    10     3    13 1   
    11     4     5 1   
    12     4    14 1   
    13     4    15 1   
    14     5     6 1   
    15     5    16 1   
    16     5    17 1   
    17     6     7 1   
    18     6    18 1   
    19     6    19 1   
    20     7    20 1   
    21     7    21 1   
    22     7    22 1   
    23     8    23 1   
    24     9    24 1   
@<TRIPOS>SUBSTRUCTURE
     1 DKL         1 TEMP              0 ****  ****    0 ROOT
