@<TRIPOS>MOLECULE
DKL
   25    24     1     0     0
SMALL
No Charge or Current Charge


@<TRIPOS>ATOM
      1 C4         -21.3030   -51.0310   -21.7170 c3         1 DKL       0.400300
      2 C5         -20.4070   -49.8880   -22.2630 c3         1 DKL      -0.098400
      3 C6         -18.8610   -50.0610   -22.1910 c3         1 DKL      -0.062400
      4 C7         -18.2430   -50.0430   -20.7710 c3         1 DKL      -0.074400
      5 C8         -16.7030   -50.2170   -20.7120 c3         1 DKL      -0.071400
      6 C9         -15.8650   -49.1120   -21.4080 c3         1 DKL      -0.074400
      7 C10        -15.4640   -49.4290   -22.8660 c3         1 DKL      -0.089100
      8 O4         -20.8560   -52.2930   -22.1530 oh         1 DKL      -0.669000
      9 O3         -21.2860   -51.0740   -20.3120 oh         1 DKL      -0.669000
     10 H1         -20.6710   -49.7520   -23.3190 hc         1 DKL       0.043700
     11 H2         -20.6870   -48.9500   -21.7680 hc         1 DKL       0.043700
     12 H3         -18.5650   -50.9830   -22.7080 hc         1 DKL       0.046700
     13 H4         -18.4270   -49.2330   -22.7630 hc         1 DKL       0.046700
     14 H5         -18.5170   -49.1050   -20.2710 hc         1 DKL       0.038700
     15 H6         -18.6750   -50.8560   -20.1780 hc         1 DKL       0.038700
     16 H7         -16.4280   -51.2000   -21.1150 hc         1 DKL       0.038700
     17 H8         -16.4180   -50.2370   -19.6530 hc         1 DKL       0.038700
     18 H9         -14.9410   -48.9670   -20.8340 hc         1 DKL       0.034200
     19 H10        -16.4030   -48.1570   -21.3710 hc         1 DKL       0.034200
     20 H11        -14.8640   -48.6100   -23.2790 hc         1 DKL       0.030700
     21 H12        -14.8620   -50.3440   -22.9080 hc         1 DKL       0.030700
     22 H13        -16.3380   -49.5660   -23.5110 hc         1 DKL       0.030700
     23 H14        -21.6360   -52.8820   -22.0820 ho         1 DKL       0.454500
     24 H15        -20.3530   -50.9090   -20.0700 ho         1 DKL       0.454500
     25 H16        -22.3370   -50.8850   -22.0500 h2         1 DKL       0.003700
@<TRIPOS>BOND
     1     1     2 1   
     2     1     8 1   
     3     1     9 1   
     4     1    25 1   
     5     2     3 1   
     6     2    10 1   
     7     2    11 1   
     8     3     4 1   
     9     3    12 1   
    10     3    13 1   
    11     4     5 1   
    12     4    14 1   
    13     4    15 1   
    14     5     6 1   
    15     5    16 1   
    16     5    17 1   
    17     6     7 1   
    18     6    18 1   
    19     6    19 1   
    20     7    20 1   
    21     7    21 1   
    22     7    22 1   
    23     8    23 1   
    24     9    24 1   
@<TRIPOS>SUBSTRUCTURE
     1 DKL         1 TEMP              0 ****  ****    0 ROOT
