@<TRIPOS>MOLECULE
DKM
   50    54     1     0     0
SMALL
No Charge or Current Charge


@<TRIPOS>ATOM
      1 N1           2.4710    -0.2990     0.2630 nh         1 DKM      -0.838400
      2 N3          -2.3350     0.8510    -0.2380 na         1 DKM       0.074200
      3 C4           3.0240     0.6430     1.2700 c5         1 DKM       0.195800
      4 C5           4.5760     0.4610     1.1220 c5         1 DKM       0.153300
      5 C6           1.0850    -0.6540     0.1820 ca         1 DKM       0.314000
      6 C7           0.7120    -2.0070     0.3690 ca         1 DKM       0.064000
      7 C8          -0.6300    -2.3950     0.3460 ca         1 DKM      -0.061000
      8 C10         -3.0900    -1.8850     0.1490 c          1 DKM       0.599900
      9 C13         -3.1750     2.9510     0.1000 cc         1 DKM      -0.311000
     10 C15         -0.6240     2.7400     0.0490 c6         1 DKM       0.254100
     11 C17          0.0530     0.3220    -0.0510 ca         1 DKM       0.169000
     12 O2          -6.4010    -0.2890     0.1690 o          1 DKM      -0.695000
     13 O3          -5.8800    -2.3000     0.5420 o          1 DKM      -0.695000
     14 C11         -4.1020    -0.7960     0.1320 cc         1 DKM      -0.305400
     15 O1          -3.3420    -3.0840     0.1610 o          1 DKM      -0.547100
     16 C12         -3.6680     0.5320    -0.0380 cd         1 DKM      -0.077000
     17 C14         -2.0250     2.1890    -0.0290 cd         1 DKM      -0.161300
     18 S           -4.6530     1.9890     0.0390 ss         1 DKM       0.314000
     19 C18         -1.3160    -0.0900    -0.0220 ca         1 DKM       0.035800
     20 C9          -1.6520    -1.4440     0.1600 ca         1 DKM      -0.186600
     21 F            1.6450    -2.9650     0.5960 f          1 DKM      -0.199000
     22 N2           0.3520     1.7000    -0.3440 nh         1 DKM      -0.773400
     23 C16          1.3120     2.0570    -1.4140 c3         1 DKM       0.183100
     24 C3           3.5260    -0.8490    -0.6230 c5         1 DKM       0.230800
     25 O            5.2920     1.6330     1.5620 oh         1 DKM      -0.658000
     26 C2           4.6970     0.1780    -0.4250 c5         1 DKM       0.159500
     27 N            6.0090    -0.5100    -0.7720 n3         1 DKM      -0.714600
     28 C1           6.0960    -0.9720    -2.1800 c3         1 DKM       0.153100
     29 C            7.2340     0.2370    -0.3970 c3         1 DKM       0.153100
     30 H9           2.7260     1.6780     1.0580 h1         1 DKM       0.055200
     31 H10          2.6930     0.3930     2.2870 h1         1 DKM       0.055200
     32 H11          4.9020    -0.4220     1.6890 h1         1 DKM       0.043700
     33 H13         -0.8700    -3.4460     0.4940 ha         1 DKM       0.151000
     34 H14         -3.2620     4.0190     0.2550 h4         1 DKM       0.138000
     35 H15         -0.5450     3.6230    -0.6030 h1         1 DKM       0.059200
     36 H16         -0.4170     3.0770     1.0760 h1         1 DKM       0.059200
     37 H18          0.8430     2.7180    -2.1550 h1         1 DKM       0.035367
     38 H17          2.1890     2.5660    -0.9920 h1         1 DKM       0.035367
     39 H19          1.6560     1.1600    -1.9450 h1         1 DKM       0.035367
     40 H7           3.8220    -1.8580    -0.3040 h1         1 DKM       0.052200
     41 H8           3.2030    -0.8940    -1.6720 h1         1 DKM       0.052200
     42 H12          5.2300     1.6530     2.5430 ho         1 DKM       0.440000
     43 H6           4.5300     1.0920    -1.0130 h1         1 DKM       0.050700
     44 H5           6.0450    -0.1210    -2.8730 h1         1 DKM       0.029700
     45 H4           7.0410    -1.5030    -2.3590 h1         1 DKM       0.029700
     46 H3           5.2820    -1.6660    -2.4280 h1         1 DKM       0.029700
     47 H2           7.3140     0.3510     0.6910 h1         1 DKM       0.029700
     48 H            8.1340    -0.2970    -0.7280 h1         1 DKM       0.029700
     49 H1           7.2400     1.2350    -0.8570 h1         1 DKM       0.029700
     50 C19         -5.5500    -1.1540     0.2880 c          1 DKM       0.728200
@<TRIPOS>BOND
     1     1     3 1   
     2     1     5 1   
     3     1    24 1   
     4     2    16 1   
     5     2    17 1   
     6     2    19 1   
     7     3     4 1   
     8     3    30 1   
     9     3    31 1   
    10     4    25 1   
    11     4    26 1   
    12     4    32 1   
    13     5     6 ar  
    14     5    11 ar  
    15     6     7 ar  
    16     6    21 1   
    17     7    20 ar  
    18     7    33 1   
    19     8    14 1   
    20     8    15 2   
    21     8    20 1   
    22     9    17 2   
    23     9    18 1   
    24     9    34 1   
    25    10    17 1   
    26    10    22 1   
    27    10    35 1   
    28    10    36 1   
    29    11    19 ar  
    30    11    22 1   
    31    12    50 1   
    32    13    50 1   
    33    14    16 2   
    34    14    50 1   
    35    16    18 1   
    36    19    20 ar  
    37    22    23 1   
    38    23    37 1   
    39    23    38 1   
    40    23    39 1   
    41    24    26 1   
    42    24    40 1   
    43    24    41 1   
    44    25    42 1   
    45    26    27 1   
    46    26    43 1   
    47    27    28 1   
    48    27    29 1   
    49    28    44 1   
    50    28    45 1   
    51    28    46 1   
    52    29    47 1   
    53    29    48 1   
    54    29    49 1   
@<TRIPOS>SUBSTRUCTURE
     1 DKM         1 TEMP              0 ****  ****    0 ROOT
