@<TRIPOS>MOLECULE
DKM
   50    54     1     0     0
SMALL
abcg2


@<TRIPOS>ATOM
      1 N1           2.4970    -0.3340     0.2420 nh         1 DKM      -0.838400
      2 N3          -2.1570     0.8870     0.1860 na         1 DKM       0.074200
      3 C4           3.0490     0.5410     1.2620 c5         1 DKM       0.195800
      4 C5           4.4950     0.8030     0.8010 c5         1 DKM       0.153300
      5 C6           1.1690    -0.6860     0.2180 ca         1 DKM       0.314000
      6 C7           0.7290    -2.0240     0.1650 ca         1 DKM       0.064000
      7 C8          -0.5850    -2.3970     0.1010 ca         1 DKM      -0.061000
      8 C10         -3.0070    -1.8010    -0.0120 c          1 DKM       0.599900
      9 C13         -2.9480     2.9990     0.1770 cc         1 DKM      -0.311000
     10 C15         -0.4750     2.5270     0.8060 c6         1 DKM       0.254100
     11 C17          0.1670     0.2990     0.2230 ca         1 DKM       0.169000
     12 O2          -6.0380     0.2220    -0.4780 o          1 DKM      -0.695000
     13 O3          -5.9150    -1.9980    -0.4140 o          1 DKM      -0.695000
     14 C11         -3.9380    -0.7060    -0.1410 cc         1 DKM      -0.305400
     15 O1          -3.3050    -2.9950    -0.0350 o          1 DKM      -0.547100
     16 C12         -3.4610     0.5840    -0.0350 cd         1 DKM      -0.077000
     17 C14         -1.8670     2.2370     0.3510 cd         1 DKM      -0.161300
     18 S           -4.3860     2.0500    -0.1470 ss         1 DKM       0.314000
     19 C18         -1.1810    -0.0920     0.2080 ca         1 DKM       0.035800
     20 C9          -1.5830    -1.4210     0.1210 ca         1 DKM      -0.186600
     21 F            1.6590    -2.9960     0.2020 f          1 DKM      -0.199000
     22 N2           0.4960     1.6620     0.1710 nh         1 DKM      -0.773400
     23 C16          0.9880     2.1200    -1.1190 c3         1 DKM       0.183100
     24 C3           3.5690    -1.0760    -0.3790 c5         1 DKM       0.230800
     25 O            4.7560     2.1620     0.5410 oh         1 DKM      -0.658000
     26 C2           4.6670    -0.0170    -0.4860 c5         1 DKM       0.159500
     27 N            5.9880    -0.5950    -0.6350 n3         1 DKM      -0.714600
     28 C1           6.0700    -1.4480    -1.8050 c3         1 DKM       0.153100
     29 C            7.0330     0.4120    -0.6820 c3         1 DKM       0.153100
     30 H9           2.4820     1.4690     1.3330 h1         1 DKM       0.055200
     31 H10          3.0340     0.0550     2.2450 h1         1 DKM       0.055200
     32 H11          5.1880     0.4100     1.5550 h1         1 DKM       0.043700
     33 H13         -0.8500    -3.4450     0.0540 ha         1 DKM       0.151000
     34 H14         -2.9970     4.0730     0.2640 h4         1 DKM       0.138000
     35 H15         -0.2200     3.5680     0.6180 h1         1 DKM       0.059200
     36 H16         -0.4270     2.3750     1.8900 h1         1 DKM       0.059200
     37 H18          0.2240     2.0990    -1.9050 h1         1 DKM       0.035367
     38 H17          1.3550     3.1400    -1.0200 h1         1 DKM       0.035367
     39 H19          1.8250     1.5000    -1.4330 h1         1 DKM       0.035367
     40 H7           3.9360    -1.9150     0.2260 h1         1 DKM       0.052200
     41 H8           3.2620    -1.4620    -1.3510 h1         1 DKM       0.052200
     42 H12          4.8100     2.6250     1.3830 ho         1 DKM       0.440000
     43 H6           4.4180     0.6470    -1.3350 h1         1 DKM       0.050700
     44 H5           5.8400    -0.9200    -2.7440 h1         1 DKM       0.029700
     45 H4           7.0810    -1.8480    -1.8920 h1         1 DKM       0.029700
     46 H3           5.3900    -2.2960    -1.7240 h1         1 DKM       0.029700
     47 H2           7.0680     0.9880     0.2400 h1         1 DKM       0.029700
     48 H            7.9970    -0.0840    -0.7980 h1         1 DKM       0.029700
     49 H1           6.9130     1.1180    -1.5170 h1         1 DKM       0.029700
     50 C19         -5.4160    -0.8650    -0.3650 c          1 DKM       0.728200
@<TRIPOS>BOND
     1     1     3 1   
     2     1     5 1   
     3     1    24 1   
     4     2    16 1   
     5     2    17 1   
     6     2    19 1   
     7     3     4 1   
     8     3    30 1   
     9     3    31 1   
    10     4    25 1   
    11     4    26 1   
    12     4    32 1   
    13     5     6 ar  
    14     5    11 ar  
    15     6     7 ar  
    16     6    21 1   
    17     7    20 ar  
    18     7    33 1   
    19     8    14 1   
    20     8    15 2   
    21     8    20 1   
    22     9    17 2   
    23     9    18 1   
    24     9    34 1   
    25    10    17 1   
    26    10    22 1   
    27    10    35 1   
    28    10    36 1   
    29    11    19 ar  
    30    11    22 1   
    31    12    50 1   
    32    13    50 1   
    33    14    16 2   
    34    14    50 1   
    35    16    18 1   
    36    19    20 ar  
    37    22    23 1   
    38    23    37 1   
    39    23    38 1   
    40    23    39 1   
    41    24    26 1   
    42    24    40 1   
    43    24    41 1   
    44    25    42 1   
    45    26    27 1   
    46    26    43 1   
    47    27    28 1   
    48    27    29 1   
    49    28    44 1   
    50    28    45 1   
    51    28    46 1   
    52    29    47 1   
    53    29    48 1   
    54    29    49 1   
@<TRIPOS>SUBSTRUCTURE
     1 DKM         1 TEMP              0 ****  ****    0 ROOT
