@<TRIPOS>MOLECULE
DKN
  100   102     1     0     0
SMALL
No Charge or Current Charge


@<TRIPOS>ATOM
      1 CAB         -4.7870    -3.6500     2.5040 cc         1 DKN       0.175900
      2 CAC         -4.4780    -2.6610     1.6060 cd         1 DKN       0.181500
      3 CAE         -2.7800    -3.9400     1.8130 cc         1 DKN       0.498300
      4 CAF         -1.4130    -4.4380     1.8090 ce         1 DKN      -0.294800
      5 CAG         -0.3600    -3.8570     1.1680 cf         1 DKN      -0.108000
      6 CAH          1.0290    -4.2870     1.2410 cf         1 DKN      -0.208000
      7 CAI          2.0520    -3.5520     0.7290 ce         1 DKN      -0.135000
      8 CAJ          3.4820    -3.8810     0.8220 ce         1 DKN      -0.210500
      9 CAK          4.4770    -3.0200     0.5010 c2         1 DKN      -0.155200
     10 CAL          4.2860    -1.5890     0.0120 c3         1 DKN      -0.052200
     11 CAM          5.5190    -0.6430     0.1420 c3         1 DKN       0.199800
     12 CAO          6.4840    -0.5310    -1.1080 c3         1 DKN      -0.141500
     13 CAP          7.0610    -1.9270    -1.5410 c3         1 DKN       0.223500
     14 CAQ          5.7750     0.1830    -2.3160 c3         1 DKN      -0.083100
     15 CAR          7.7050     0.3130    -0.6540 c          1 DKN       0.597100
     16 CAS          8.2460    -1.8270    -2.4820 c2         1 DKN      -0.284200
     17 CAU          9.5100    -2.1650    -2.1750 c2         1 DKN      -0.173200
     18 CAV         10.6940    -2.0490    -3.1080 c3         1 DKN      -0.063900
     19 CAW          5.4140     1.5050     1.3510 c          1 DKN       0.548600
     20 CAX          4.4950     2.6440     1.6560 cc         1 DKN       0.181500
     21 CBA          2.8300     3.9460     1.8100 cd         1 DKN       0.498300
     22 CBC          4.7900     3.6260     2.5580 cd         1 DKN       0.175900
     23 CBD          1.4440     4.4020     1.8050 cf         1 DKN      -0.294800
     24 CBE          0.3930     3.8040     1.1770 ce         1 DKN      -0.108000
     25 CBF         -1.0080     4.2290     1.2590 ce         1 DKN      -0.208000
     26 CBG         -2.0330     3.4960     0.7470 cf         1 DKN      -0.135000
     27 CBH         -3.4520     3.8280     0.8450 cf         1 DKN      -0.210500
     28 CBI         -4.4590     2.9830     0.5090 c2         1 DKN      -0.155200
     29 CBJ         -4.2840     1.5610    -0.0080 c3         1 DKN      -0.052200
     30 CBK         -5.5260     0.6240     0.1120 c3         1 DKN       0.199800
     31 CBM         -6.4980     0.5420    -1.1340 c3         1 DKN      -0.141500
     32 CBN         -7.0640     1.9500    -1.5400 c3         1 DKN       0.223500
     33 CBO         -5.8010    -0.1590    -2.3580 c3         1 DKN      -0.083100
     34 CBP         -7.7250    -0.2990    -0.6890 c          1 DKN       0.597100
     35 CBR         -8.2560     1.8770    -2.4760 c2         1 DKN      -0.284200
     36 CBS         -9.5140     2.2230    -2.1560 c2         1 DKN      -0.173200
     37 CBT        -10.7050     2.1340    -3.0840 c3         1 DKN      -0.063900
     38 CBU         -5.4230    -1.5430     1.2880 c          1 DKN       0.548600
     39 CBY          9.6250     0.3350     0.8070 c3         1 DKN       0.155900
     40 CCB         -9.6370    -0.3280     0.7820 c3         1 DKN       0.155900
     41 NAD         -3.1790    -2.8680     1.1550 nd         1 DKN      -0.643000
     42 NAZ          3.2240     2.8550     1.1710 nc         1 DKN      -0.643000
     43 OAA         -3.7150    -4.4790     2.6430 os         1 DKN      -0.250000
     44 OAN          4.9190     0.6500     0.3930 os         1 DKN      -0.432100
     45 OAT          6.0830    -2.7260    -2.2040 oh         1 DKN      -0.647500
     46 OAY          6.4840     1.3320     1.9190 o          1 DKN      -0.491000
     47 OBB          3.7430     4.4920     2.6700 os         1 DKN      -0.250000
     48 OBL         -4.9330    -0.6760     0.3380 os         1 DKN      -0.432100
     49 OBQ         -6.0820     2.7510    -2.1950 oh         1 DKN      -0.647500
     50 OBV         -6.5040    -1.3960     1.8430 o          1 DKN      -0.491000
     51 OBW          8.0120     1.3970    -1.1360 o          1 DKN      -0.478000
     52 OBX          8.4450    -0.3230     0.3150 os         1 DKN      -0.438100
     53 OBZ         -8.0470    -1.3700    -1.1900 o          1 DKN      -0.478000
     54 OCA         -8.4530     0.3270     0.2960 os         1 DKN      -0.438100
     55 HAB         -5.6700    -3.8500     3.0940 h4         1 DKN       0.081100
     56 HAF         -1.2510    -5.3230     2.4230 ha         1 DKN       0.198000
     57 HAG         -0.5570    -2.9520     0.5840 ha         1 DKN       0.192000
     58 HAH          1.2510    -5.2160     1.7710 ha         1 DKN       0.179000
     59 HAI          1.7930    -2.6200     0.2240 ha         1 DKN       0.173000
     60 HAJ          3.7290    -4.8810     1.1870 ha         1 DKN       0.179000
     61 HAK          5.5170    -3.3390     0.5970 ha         1 DKN       0.177000
     62 HAM          3.9160    -1.5920    -1.0180 hc         1 DKN       0.071950
     63 HAL          3.4750    -1.1470     0.6060 hc         1 DKN       0.071950
     64 HAN          6.0860    -0.9800     1.0210 h1         1 DKN       0.077200
     65 HAP          7.3950    -2.4490    -0.6320 h1         1 DKN       0.083700
     66 HAQ          4.8940    -0.3680    -2.6640 hc         1 DKN       0.050867
     67 HAS          5.4410     1.1920    -2.0450 hc         1 DKN       0.050867
     68 HAR          6.4560     0.2920    -3.1690 hc         1 DKN       0.050867
     69 HAT          8.0160    -1.4390    -3.4750 ha         1 DKN       0.175000
     70 HAU          9.7570    -2.5520    -1.1830 ha         1 DKN       0.171000
     71 HAV         11.4580    -1.3820    -2.6900 hc         1 DKN       0.044367
     72 HAW         11.1600    -3.0280    -3.2730 hc         1 DKN       0.044367
     73 HAX         10.4020    -1.6490    -4.0870 hc         1 DKN       0.044367
     74 HBC          5.6680     3.8000     3.1660 h4         1 DKN       0.081100
     75 HBD          1.2600     5.2880     2.4110 ha         1 DKN       0.198000
     76 HBE          0.5910     2.8990     0.5940 ha         1 DKN       0.192000
     77 HBF         -1.2260     5.1560     1.7930 ha         1 DKN       0.179000
     78 HBG         -1.7730     2.5670     0.2380 ha         1 DKN       0.173000
     79 HBH         -3.7020     4.8210     1.2270 ha         1 DKN       0.179000
     80 HBI         -5.4920     3.3210     0.6160 ha         1 DKN       0.177000
     81 HBJ         -3.9220     1.5800    -1.0410 hc         1 DKN       0.071950
     82 HBK         -3.4730     1.1010     0.5700 hc         1 DKN       0.071950
     83 HBL         -6.0850     0.9500     1.0010 h1         1 DKN       0.077200
     84 HBN         -7.3870     2.4590    -0.6200 h1         1 DKN       0.083700
     85 HBO         -4.9170     0.3900    -2.7000 hc         1 DKN       0.050867
     86 HBP         -5.4770    -1.1750    -2.1050 hc         1 DKN       0.050867
     87 HBQ         -6.4870    -0.2470    -3.2090 hc         1 DKN       0.050867
     88 HBR         -8.0350     1.5030    -3.4770 ha         1 DKN       0.175000
     89 HBS         -9.7510     2.5960    -1.1560 ha         1 DKN       0.171000
     90 HBV        -11.1620     3.1200    -3.2310 hc         1 DKN       0.044367
     91 HBT        -10.4220     1.7480    -4.0710 hc         1 DKN       0.044367
     92 HBU        -11.4720     1.4670    -2.6730 hc         1 DKN       0.044367
     93 HB0         10.1120    -0.2790     1.5740 h1         1 DKN       0.048867
     94 HBY         10.3460     0.5010    -0.0040 h1         1 DKN       0.048867
     95 HBZ          9.3740     1.3050     1.2560 h1         1 DKN       0.048867
     96 HCD        -10.3640    -0.4710    -0.0280 h1         1 DKN       0.048867
     97 HCB         -9.3940    -1.3080     1.2110 h1         1 DKN       0.048867
     98 HCC        -10.1140     0.2770     1.5640 h1         1 DKN       0.048867
     99 HCE          5.9890    -2.3640    -3.1080 ho         1 DKN       0.445500
    100 HCF         -5.9970     2.4040    -3.1060 ho         1 DKN       0.445500
@<TRIPOS>BOND
     1     1     2 2   
     2     1    43 1   
     3     1    55 1   
     4     2    38 1   
     5     2    41 1   
     6     3     4 1   
     7     3    41 2   
     8     3    43 1   
     9     4     5 2   
    10     4    56 1   
    11     5     6 1   
    12     5    57 1   
    13     6     7 2   
    14     6    58 1   
    15     7     8 1   
    16     7    59 1   
    17     8     9 2   
    18     8    60 1   
    19     9    10 1   
    20     9    61 1   
    21    10    11 1   
    22    10    62 1   
    23    10    63 1   
    24    11    12 1   
    25    11    44 1   
    26    11    64 1   
    27    12    13 1   
    28    12    14 1   
    29    12    15 1   
    30    13    16 1   
    31    13    45 1   
    32    13    65 1   
    33    14    66 1   
    34    14    67 1   
    35    14    68 1   
    36    15    51 2   
    37    15    52 1   
    38    16    17 2   
    39    16    69 1   
    40    17    18 1   
    41    17    70 1   
    42    18    71 1   
    43    18    72 1   
    44    18    73 1   
    45    19    20 1   
    46    19    44 1   
    47    19    46 2   
    48    20    22 2   
    49    20    42 1   
    50    21    23 1   
    51    21    42 2   
    52    21    47 1   
    53    22    47 1   
    54    22    74 1   
    55    23    24 2   
    56    23    75 1   
    57    24    25 1   
    58    24    76 1   
    59    25    26 2   
    60    25    77 1   
    61    26    27 1   
    62    26    78 1   
    63    27    28 2   
    64    27    79 1   
    65    28    29 1   
    66    28    80 1   
    67    29    30 1   
    68    29    81 1   
    69    29    82 1   
    70    30    31 1   
    71    30    48 1   
    72    30    83 1   
    73    31    32 1   
    74    31    33 1   
    75    31    34 1   
    76    32    35 1   
    77    32    49 1   
    78    32    84 1   
    79    33    85 1   
    80    33    86 1   
    81    33    87 1   
    82    34    53 2   
    83    34    54 1   
    84    35    36 2   
    85    35    88 1   
    86    36    37 1   
    87    36    89 1   
    88    37    90 1   
    89    37    91 1   
    90    37    92 1   
    91    38    48 1   
    92    38    50 2   
    93    39    52 1   
    94    39    93 1   
    95    39    94 1   
    96    39    95 1   
    97    40    54 1   
    98    40    96 1   
    99    40    97 1   
   100    40    98 1   
   101    45    99 1   
   102    49   100 1   
@<TRIPOS>SUBSTRUCTURE
     1 DKN         1 TEMP              0 ****  ****    0 ROOT
