@<TRIPOS>MOLECULE
DKN
  100   102     1     0     0
SMALL
bcc


@<TRIPOS>ATOM
      1 CAB         -4.8620    -4.1960     2.0050 cc         1 DKN       0.220300
      2 CAC         -4.5030    -3.0020     1.4740 cd         1 DKN       0.181500
      3 CAE         -2.7360    -4.1430     1.6830 cc         1 DKN       0.542700
      4 CAF         -1.3880    -4.6470     1.7500 ce         1 DKN      -0.244800
      5 CAG         -0.3450    -3.8790     1.3860 cf         1 DKN      -0.058000
      6 CAH          1.0390    -4.2550     1.4680 cf         1 DKN      -0.158000
      7 CAI          2.0140    -3.3860     1.1310 ce         1 DKN      -0.085000
      8 CAJ          3.4300    -3.6410     1.2310 ce         1 DKN      -0.160500
      9 CAK          4.3690    -2.7280     0.9420 c2         1 DKN      -0.105200
     10 CAL          4.0680    -1.3260     0.5010 c3         1 DKN      -0.052200
     11 CAM          5.2850    -0.4120     0.3440 c3         1 DKN       0.176600
     12 CAO          6.0140    -0.4410    -1.0280 c3         1 DKN      -0.141500
     13 CAP          6.4650    -1.8930    -1.4040 c3         1 DKN       0.200300
     14 CAQ          5.1400     0.1510    -2.1330 c3         1 DKN      -0.083100
     15 CAR          7.2970     0.3820    -0.9040 c          1 DKN       0.646100
     16 CAS          7.4790    -1.8840    -2.5140 c2         1 DKN      -0.234200
     17 CAU          8.7300    -2.3120    -2.3810 c2         1 DKN      -0.123200
     18 CAV          9.7520    -2.3200    -3.4680 c3         1 DKN      -0.063900
     19 CAW          5.3790     1.8340     1.2380 c          1 DKN       0.597600
     20 CAX          4.4990     2.9750     1.5200 cc         1 DKN       0.181500
     21 CBA          2.7320     4.1150     1.7380 cd         1 DKN       0.542700
     22 CBC          4.8570     4.1620     2.0670 cd         1 DKN       0.220300
     23 CBD          1.3850     4.6200     1.8070 cf         1 DKN      -0.244800
     24 CBE          0.3420     3.8530     1.4390 ce         1 DKN      -0.058000
     25 CBF         -1.0420     4.2290     1.5190 ce         1 DKN      -0.158000
     26 CBG         -2.0160     3.3620     1.1750 cf         1 DKN      -0.085000
     27 CBH         -3.4330     3.6180     1.2720 cf         1 DKN      -0.160500
     28 CBI         -4.3710     2.7080     0.9700 c2         1 DKN      -0.105200
     29 CBJ         -4.0690     1.3110     0.5150 c3         1 DKN      -0.052200
     30 CBK         -5.2870     0.4000     0.3430 c3         1 DKN       0.176600
     31 CBM         -6.0130     0.4480    -1.0290 c3         1 DKN      -0.141500
     32 CBN         -6.4540     1.9060    -1.3930 c3         1 DKN       0.200300
     33 CBO         -5.1390    -0.1380    -2.1380 c3         1 DKN      -0.083100
     34 CBP         -7.3020    -0.3680    -0.9170 c          1 DKN       0.646100
     35 CBR         -7.4670     1.9130    -2.5040 c2         1 DKN      -0.234200
     36 CBS         -8.7150     2.3500    -2.3690 c2         1 DKN      -0.123200
     37 CBT         -9.7360     2.3750    -3.4560 c3         1 DKN      -0.063900
     38 CBU         -5.3840    -1.8590     1.2040 c          1 DKN       0.597600
     39 CBY          9.3800     0.5100     0.1780 c3         1 DKN       0.132700
     40 CCB         -9.3860    -0.4950     0.1630 c3         1 DKN       0.132700
     41 NAD         -3.1470    -2.9900     1.2700 nd         1 DKN      -0.643000
     42 NAZ          3.1440     2.9660     1.3130 nc         1 DKN      -0.643000
     43 OAA         -3.7410    -4.9260     2.1330 os         1 DKN      -0.338800
     44 OAN          4.7430     0.9090     0.5430 os         1 DKN      -0.408900
     45 OAT          5.3700    -2.7130    -1.7360 oh         1 DKN      -0.585300
     46 OAY          6.5230     1.7700     1.6160 o          1 DKN      -0.540000
     47 OBB          3.7380     4.8910     2.2000 os         1 DKN      -0.338800
     48 OBL         -4.7450    -0.9230     0.5260 os         1 DKN      -0.408900
     49 OBQ         -5.3540     2.7220    -1.7160 oh         1 DKN      -0.585300
     50 OBV         -6.5290    -1.8020     1.5770 o          1 DKN      -0.540000
     51 OBW          7.5410     1.3730    -1.5440 o          1 DKN      -0.527000
     52 OBX          8.1310    -0.1440    -0.0240 os         1 DKN      -0.414900
     53 OBZ         -7.5510    -1.3500    -1.5700 o          1 DKN      -0.527000
     54 OCA         -8.1320     0.1530    -0.0310 os         1 DKN      -0.414900
     55 HAB         -5.7950    -4.6370     2.3130 h4         1 DKN       0.081100
     56 HAF         -1.2460    -5.6530     2.1280 ha         1 DKN       0.148000
     57 HAG         -0.5500    -2.8770     1.0190 ha         1 DKN       0.142000
     58 HAH          1.2890    -5.2460     1.8330 ha         1 DKN       0.129000
     59 HAI          1.7070    -2.4080     0.7720 ha         1 DKN       0.123000
     60 HAJ          3.7400    -4.6210     1.5770 ha         1 DKN       0.129000
     61 HAK          5.4070    -3.0080     1.0820 ha         1 DKN       0.127000
     62 HAM          3.4680    -1.3300    -0.4110 hc         1 DKN       0.071950
     63 HAL          3.4370    -0.8600     1.2640 hc         1 DKN       0.071950
     64 HAN          5.9970    -0.6290     1.1440 h1         1 DKN       0.077200
     65 HAP          6.9210    -2.3530    -0.5230 h1         1 DKN       0.083700
     66 HAQ          4.1920    -0.3800    -2.2220 hc         1 DKN       0.050867
     67 HAS          4.9040     1.1960    -1.9500 hc         1 DKN       0.050867
     68 HAR          5.6350     0.1030    -3.1030 hc         1 DKN       0.050867
     69 HAT          7.1440    -1.5150    -3.4810 ha         1 DKN       0.125000
     70 HAU          9.0590    -2.6800    -1.4130 ha         1 DKN       0.121000
     71 HAV         10.6190    -1.7180    -3.1890 hc         1 DKN       0.044367
     72 HAW         10.1220    -3.3320    -3.6470 hc         1 DKN       0.044367
     73 HAX          9.3550    -1.9310    -4.4060 hc         1 DKN       0.044367
     74 HBC          5.7910     4.5980     2.3810 h4         1 DKN       0.081100
     75 HBD          1.2430     5.6240     2.1890 ha         1 DKN       0.148000
     76 HBE          0.5480     2.8520     1.0700 ha         1 DKN       0.142000
     77 HBF         -1.2920     5.2200     1.8870 ha         1 DKN       0.129000
     78 HBG         -1.7090     2.3850     0.8130 ha         1 DKN       0.123000
     79 HBH         -3.7430     4.5960     1.6240 ha         1 DKN       0.129000
     80 HBI         -5.4090     2.9890     1.1070 ha         1 DKN       0.127000
     81 HBJ         -3.4660     1.3240    -0.3950 hc         1 DKN       0.071950
     82 HBK         -3.4420     0.8370     1.2760 hc         1 DKN       0.071950
     83 HBL         -6.0000     0.6070     1.1450 h1         1 DKN       0.077200
     84 HBN         -6.9090     2.3610    -0.5090 h1         1 DKN       0.083700
     85 HBO         -4.1840     0.3820    -2.2120 hc         1 DKN       0.050867
     86 HBP         -4.9180    -1.1900    -1.9710 hc         1 DKN       0.050867
     87 HBQ         -5.6260    -0.0680    -3.1110 hc         1 DKN       0.050867
     88 HBR         -7.1350     1.5500    -3.4740 ha         1 DKN       0.125000
     89 HBS         -9.0420     2.7130    -1.3980 ha         1 DKN       0.121000
     90 HBV        -10.0970     3.3910    -3.6280 hc         1 DKN       0.044367
     91 HBT         -9.3430     1.9880    -4.3960 hc         1 DKN       0.044367
     92 HBU        -10.6090     1.7800    -3.1800 hc         1 DKN       0.044367
     93 HB0          9.8860    -0.0480     0.9610 h1         1 DKN       0.048867
     94 HBY          9.9870     0.4900    -0.7280 h1         1 DKN       0.048867
     95 HBZ          9.2420     1.5410     0.4990 h1         1 DKN       0.048867
     96 HCD         -9.9890    -0.4670    -0.7450 h1         1 DKN       0.048867
     97 HCB         -9.2550    -1.5290     0.4780 h1         1 DKN       0.048867
     98 HCC         -9.8920     0.0610     0.9460 h1         1 DKN       0.048867
     99 HCE          5.0380    -2.4650    -2.6050 ho         1 DKN       0.406500
    100 HCF         -5.0190     2.4770    -2.5850 ho         1 DKN       0.406500
@<TRIPOS>BOND
     1     1     2 2   
     2     1    43 1   
     3     1    55 1   
     4     2    38 1   
     5     2    41 1   
     6     3     4 1   
     7     3    41 2   
     8     3    43 1   
     9     4     5 2   
    10     4    56 1   
    11     5     6 1   
    12     5    57 1   
    13     6     7 2   
    14     6    58 1   
    15     7     8 1   
    16     7    59 1   
    17     8     9 2   
    18     8    60 1   
    19     9    10 1   
    20     9    61 1   
    21    10    11 1   
    22    10    62 1   
    23    10    63 1   
    24    11    12 1   
    25    11    44 1   
    26    11    64 1   
    27    12    13 1   
    28    12    14 1   
    29    12    15 1   
    30    13    16 1   
    31    13    45 1   
    32    13    65 1   
    33    14    66 1   
    34    14    67 1   
    35    14    68 1   
    36    15    51 2   
    37    15    52 1   
    38    16    17 2   
    39    16    69 1   
    40    17    18 1   
    41    17    70 1   
    42    18    71 1   
    43    18    72 1   
    44    18    73 1   
    45    19    20 1   
    46    19    44 1   
    47    19    46 2   
    48    20    22 2   
    49    20    42 1   
    50    21    23 1   
    51    21    42 2   
    52    21    47 1   
    53    22    47 1   
    54    22    74 1   
    55    23    24 2   
    56    23    75 1   
    57    24    25 1   
    58    24    76 1   
    59    25    26 2   
    60    25    77 1   
    61    26    27 1   
    62    26    78 1   
    63    27    28 2   
    64    27    79 1   
    65    28    29 1   
    66    28    80 1   
    67    29    30 1   
    68    29    81 1   
    69    29    82 1   
    70    30    31 1   
    71    30    48 1   
    72    30    83 1   
    73    31    32 1   
    74    31    33 1   
    75    31    34 1   
    76    32    35 1   
    77    32    49 1   
    78    32    84 1   
    79    33    85 1   
    80    33    86 1   
    81    33    87 1   
    82    34    53 2   
    83    34    54 1   
    84    35    36 2   
    85    35    88 1   
    86    36    37 1   
    87    36    89 1   
    88    37    90 1   
    89    37    91 1   
    90    37    92 1   
    91    38    48 1   
    92    38    50 2   
    93    39    52 1   
    94    39    93 1   
    95    39    94 1   
    96    39    95 1   
    97    40    54 1   
    98    40    96 1   
    99    40    97 1   
   100    40    98 1   
   101    45    99 1   
   102    49   100 1   
@<TRIPOS>SUBSTRUCTURE
     1 DKN         1 TEMP              0 ****  ****    0 ROOT
