@<TRIPOS>MOLECULE
DKO
   28    27     1     0     0
SMALL
bcc


@<TRIPOS>ATOM
      1 C4         -24.4650   -59.4770    20.9360 c3         1 DKO       0.341900
      2 C5         -25.8320   -59.9070    20.4350 c3         1 DKO      -0.068400
      3 C6         -26.6720   -60.6850    21.4510 c3         1 DKO      -0.062400
      4 C7         -26.3990   -62.1840    21.5650 c3         1 DKO      -0.072400
      5 C8         -26.7570   -62.9800    20.3150 c3         1 DKO      -0.074400
      6 C9         -26.5440   -64.4790    20.4980 c3         1 DKO      -0.074400
      7 C10        -26.9770   -65.3250    19.3040 c3         1 DKO      -0.072400
      8 C11        -26.1500   -65.0920    18.0460 c3         1 DKO      -0.089100
      9 O4         -23.8940   -58.6590    19.9490 oh         1 DKO      -0.610800
     10 O3         -23.6850   -60.6120    21.1840 oh         1 DKO      -0.610800
     11 H1         -25.7150   -60.4760    19.5070 hc         1 DKO       0.060700
     12 H2         -26.3690   -58.9950    20.1650 hc         1 DKO       0.060700
     13 H3         -26.5590   -60.2210    22.4360 hc         1 DKO       0.034700
     14 H4         -27.7260   -60.5540    21.1870 hc         1 DKO       0.034700
     15 H5         -26.9860   -62.5740    22.4040 hc         1 DKO       0.042700
     16 H6         -25.3530   -62.3590    21.8220 hc         1 DKO       0.042700
     17 H7         -26.1660   -62.6250    19.4650 hc         1 DKO       0.038200
     18 H8         -27.8050   -62.7960    20.0520 hc         1 DKO       0.038200
     19 H9         -27.0980   -64.8080    21.3830 hc         1 DKO       0.036200
     20 H10        -25.4870   -64.6700    20.7160 hc         1 DKO       0.036200
     21 H11        -28.0320   -65.1290    19.0890 hc         1 DKO       0.034700
     22 H12        -26.9160   -66.3820    19.5790 hc         1 DKO       0.034700
     23 H13        -26.4670   -65.7520    17.2370 hc         1 DKO       0.031033
     24 H14        -26.2400   -64.0680    17.6810 hc         1 DKO       0.031033
     25 H15        -25.0900   -65.2830    18.2300 hc         1 DKO       0.031033
     26 H16        -23.1500   -58.1800    20.3270 ho         1 DKO       0.400000
     27 H17        -22.9490   -60.3730    21.7580 ho         1 DKO       0.400000
     28 H18        -24.5890   -58.9040    21.8670 h2         1 DKO       0.005700
@<TRIPOS>BOND
     1     1     2 1   
     2     1     9 1   
     3     1    10 1   
     4     1    28 1   
     5     2     3 1   
     6     2    11 1   
     7     2    12 1   
     8     3     4 1   
     9     3    13 1   
    10     3    14 1   
    11     4     5 1   
    12     4    15 1   
    13     4    16 1   
    14     5     6 1   
    15     5    17 1   
    16     5    18 1   
    17     6     7 1   
    18     6    19 1   
    19     6    20 1   
    20     7     8 1   
    21     7    21 1   
    22     7    22 1   
    23     8    23 1   
    24     8    24 1   
    25     8    25 1   
    26     9    26 1   
    27    10    27 1   
@<TRIPOS>SUBSTRUCTURE
     1 DKO         1 TEMP              0 ****  ****    0 ROOT
