@<TRIPOS>MOLECULE
DKO
   28    27     1     0     0
SMALL
No Charge or Current Charge


@<TRIPOS>ATOM
      1 C4         -24.4560   -59.6750    20.8060 c3         1 DKO       0.388300
      2 C5         -25.9610   -59.7950    20.4610 c3         1 DKO      -0.068400
      3 C6         -26.8230   -60.5790    21.4900 c3         1 DKO      -0.062400
      4 C7         -26.5310   -62.0940    21.6360 c3         1 DKO      -0.072400
      5 C8         -26.7760   -62.9200    20.3520 c3         1 DKO      -0.074400
      6 C9         -26.5590   -64.4370    20.5620 c3         1 DKO      -0.074400
      7 C10        -26.8680   -65.3060    19.3190 c3         1 DKO      -0.072400
      8 C11        -25.9280   -65.0610    18.1190 c3         1 DKO      -0.089100
      9 O4         -23.8690   -58.6510    20.0290 oh         1 DKO      -0.673000
     10 O3         -23.7590   -60.8570    20.4710 oh         1 DKO      -0.673000
     11 H1         -26.0800   -60.2220    19.4590 hc         1 DKO       0.060700
     12 H2         -26.3740   -58.7810    20.4040 hc         1 DKO       0.060700
     13 H3         -26.7070   -60.1060    22.4730 hc         1 DKO       0.034700
     14 H4         -27.8790   -60.4570    21.2180 hc         1 DKO       0.034700
     15 H5         -27.1750   -62.4870    22.4320 hc         1 DKO       0.042700
     16 H6         -25.5000   -62.2420    21.9790 hc         1 DKO       0.042700
     17 H7         -26.1020   -62.5670    19.5630 hc         1 DKO       0.038200
     18 H8         -27.8010   -62.7480    20.0020 hc         1 DKO       0.038200
     19 H9         -27.2000   -64.7750    21.3860 hc         1 DKO       0.036200
     20 H10        -25.5230   -64.6160    20.8780 hc         1 DKO       0.036200
     21 H11        -27.9050   -65.1380    19.0060 hc         1 DKO       0.034700
     22 H12        -26.7950   -66.3620    19.6060 hc         1 DKO       0.034700
     23 H13        -26.1520   -65.7690    17.3120 hc         1 DKO       0.031033
     24 H14        -26.0510   -64.0470    17.7210 hc         1 DKO       0.031033
     25 H15        -24.8800   -65.1970    18.4120 hc         1 DKO       0.031033
     26 H16        -23.1100   -58.3160    20.5500 ho         1 DKO       0.439000
     27 H17        -22.9870   -60.8970    21.0720 ho         1 DKO       0.439000
     28 H18        -24.3210   -59.4470    21.8700 h2         1 DKO       0.005700
@<TRIPOS>BOND
     1     1     2 1   
     2     1     9 1   
     3     1    10 1   
     4     1    28 1   
     5     2     3 1   
     6     2    11 1   
     7     2    12 1   
     8     3     4 1   
     9     3    13 1   
    10     3    14 1   
    11     4     5 1   
    12     4    15 1   
    13     4    16 1   
    14     5     6 1   
    15     5    17 1   
    16     5    18 1   
    17     6     7 1   
    18     6    19 1   
    19     6    20 1   
    20     7     8 1   
    21     7    21 1   
    22     7    22 1   
    23     8    23 1   
    24     8    24 1   
    25     8    25 1   
    26     9    26 1   
    27    10    27 1   
@<TRIPOS>SUBSTRUCTURE
     1 DKO         1 TEMP              0 ****  ****    0 ROOT
