@<TRIPOS>MOLECULE
DKP
   40    42     1     0     0
SMALL
No Charge or Current Charge


@<TRIPOS>ATOM
      1 C10        -27.7710    22.7220     0.8470 ca         1 DKP      -0.114000
      2 C20        -23.8140    18.2830     7.7380 c          1 DKP       0.715600
      3 C01        -27.8360    25.6300     6.8360 c3         1 DKP      -0.087100
      4 C02        -27.2120    24.2300     6.6760 c3         1 DKP      -0.082400
      5 C03        -26.6810    23.9670     5.2560 c3         1 DKP       0.155600
      6 C05        -25.5550    22.2340     3.9780 c3         1 DKP       0.281800
      7 C06        -26.6690    22.0860     2.9360 ca         1 DKP      -0.089300
      8 C07        -27.6760    21.1170     3.1440 ca         1 DKP      -0.077000
      9 C08        -28.7160    20.9520     2.2140 ca         1 DKP      -0.119000
     10 C09        -28.7640    21.7540     1.0640 ca         1 DKP      -0.107000
     11 C11        -26.7270    22.8920     1.7740 ca         1 DKP       0.137000
     12 C13        -24.8110    20.9350     4.2050 cc         1 DKP      -0.085300
     13 C14        -24.1670    20.0940     3.3030 cd         1 DKP      -0.347800
     14 C15        -23.6050    18.9610     3.9770 ca         1 DKP       0.299800
     15 C17        -22.5050    17.0050     4.3230 ca         1 DKP       0.283900
     16 C18        -22.7710    17.0740     5.7150 ca         1 DKP      -0.143000
     17 C19        -23.5040    18.1670     6.2540 ca         1 DKP      -0.102600
     18 C23        -23.9140    19.1210     5.3010 ca         1 DKP      -0.055200
     19 N16        -22.9170    17.9460     3.4340 nb         1 DKP      -0.666000
     20 N24        -24.6360    20.2980     5.4540 na         1 DKP      -0.180700
     21 O04        -26.1320    22.6390     5.2370 os         1 DKP      -0.453000
     22 O21        -23.4140    17.4000     8.4850 o          1 DKP      -0.723000
     23 O22        -24.4480    19.2500     8.1360 o          1 DKP      -0.723000
     24 Cl1        -25.5210    24.1350     1.4400 cl         1 DKP      -0.212000
     25 H1         -27.8090    23.3460    -0.0430 ha         1 DKP       0.122000
     26 H2         -28.2000    25.7730     7.8600 hc         1 DKP       0.029367
     27 H3         -27.0950    26.4110     6.6230 hc         1 DKP       0.029367
     28 H4         -28.6820    25.7580     6.1490 hc         1 DKP       0.029367
     29 H5         -27.9650    23.4720     6.9250 hc         1 DKP       0.056700
     30 H6         -26.3910    24.1190     7.3950 hc         1 DKP       0.056700
     31 H7         -25.9110    24.7100     5.0070 h1         1 DKP       0.022700
     32 H8         -27.5040    24.0640     4.5360 h1         1 DKP       0.022700
     33 H9         -24.8130    22.9740     3.6570 h1         1 DKP       0.057700
     34 H10        -27.6490    20.4910     4.0340 ha         1 DKP       0.137000
     35 H11        -29.4840    20.2010     2.3870 ha         1 DKP       0.112000
     36 H12        -29.5690    21.6270     0.3440 ha         1 DKP       0.108000
     37 H13        -24.1040    20.2670     2.2340 ha         1 DKP       0.196000
     38 H14        -21.9430    16.1690     3.9100 h4         1 DKP      -0.009900
     39 H15        -22.4060    16.2800     6.3600 ha         1 DKP       0.130000
     40 H16        -24.9910    20.6450     6.3410 hn         1 DKP       0.395000
@<TRIPOS>BOND
     1     1    10 ar  
     2     1    11 ar  
     3     1    25 1   
     4     2    17 1   
     5     2    22 1   
     6     2    23 1   
     7     3     4 1   
     8     3    26 1   
     9     3    27 1   
    10     3    28 1   
    11     4     5 1   
    12     4    29 1   
    13     4    30 1   
    14     5    21 1   
    15     5    31 1   
    16     5    32 1   
    17     6     7 1   
    18     6    12 1   
    19     6    21 1   
    20     6    33 1   
    21     7     8 ar  
    22     7    11 ar  
    23     8     9 ar  
    24     8    34 1   
    25     9    10 ar  
    26     9    35 1   
    27    10    36 1   
    28    11    24 1   
    29    12    13 2   
    30    12    20 1   
    31    13    14 1   
    32    13    37 1   
    33    14    18 ar  
    34    14    19 ar  
    35    15    16 ar  
    36    15    19 ar  
    37    15    38 1   
    38    16    17 ar  
    39    16    39 1   
    40    17    18 ar  
    41    18    20 1   
    42    20    40 1   
@<TRIPOS>SUBSTRUCTURE
     1 DKP         1 TEMP              0 ****  ****    0 ROOT
