@<TRIPOS>MOLECULE
DKP
   40    42     1     0     0
SMALL
abcg2


@<TRIPOS>ATOM
      1 C10        -27.0000    22.5170     0.5140 ca         1 DKP      -0.114000
      2 C20        -22.5630    19.0890     7.5260 c          1 DKP       0.715600
      3 C01        -28.0490    25.2880     7.0790 c3         1 DKP      -0.087100
      4 C02        -27.6630    23.8350     6.8100 c3         1 DKP      -0.082400
      5 C03        -26.9020    23.6900     5.5090 c3         1 DKP       0.155600
      6 C05        -25.8180    22.0700     4.1370 c3         1 DKP       0.281800
      7 C06        -26.6860    22.1110     2.8930 ca         1 DKP      -0.089300
      8 C07        -28.0230    21.7230     2.9680 ca         1 DKP      -0.077000
      9 C08        -28.8420    21.7310     1.8480 ca         1 DKP      -0.119000
     10 C09        -28.3290    22.1300     0.6180 ca         1 DKP      -0.107000
     11 C11        -26.1970    22.5030     1.6490 ca         1 DKP       0.137000
     12 C13        -25.1370    20.7450     4.2900 cc         1 DKP      -0.085300
     13 C14        -25.0840    19.6660     3.4420 cd         1 DKP      -0.347800
     14 C15        -24.2470    18.6880     4.0700 ca         1 DKP       0.299800
     15 C17        -23.0880    16.7830     4.4910 ca         1 DKP       0.283900
     16 C18        -22.6440    17.2610     5.7310 ca         1 DKP      -0.143000
     17 C19        -23.0090    18.5250     6.1850 ca         1 DKP      -0.102600
     18 C23        -23.8260    19.2430     5.3140 ca         1 DKP      -0.055200
     19 N16        -23.8780    17.4640     3.6590 nb         1 DKP      -0.666000
     20 N24        -24.3760    20.4900     5.4090 na         1 DKP      -0.180700
     21 O04        -26.5620    22.3130     5.3250 os         1 DKP      -0.453000
     22 O21        -21.8350    18.3670     8.2450 o          1 DKP      -0.723000
     23 O22        -22.9760    20.2500     7.7970 o          1 DKP      -0.723000
     24 CL1        -24.5180    22.9850     1.4690 cl         1 DKP      -0.212000
     25 H1         -26.5840    22.8270    -0.4340 ha         1 DKP       0.122000
     26 H2         -28.5990    25.3770     8.0170 hc         1 DKP       0.029367
     27 H3         -27.1630    25.9240     7.1490 hc         1 DKP       0.029367
     28 H4         -28.6810    25.6820     6.2800 hc         1 DKP       0.029367
     29 H5         -28.5600    23.2110     6.7660 hc         1 DKP       0.056700
     30 H6         -27.0450    23.4520     7.6260 hc         1 DKP       0.056700
     31 H7         -25.9810    24.2880     5.5270 h1         1 DKP       0.022700
     32 H8         -27.5120    24.0410     4.6680 h1         1 DKP       0.022700
     33 H9         -25.0450    22.8440     4.0510 h1         1 DKP       0.057700
     34 H10        -28.4150    21.4200     3.9300 ha         1 DKP       0.137000
     35 H11        -29.8770    21.4280     1.9350 ha         1 DKP       0.112000
     36 H12        -28.9580    22.1410    -0.2630 ha         1 DKP       0.108000
     37 H13        -25.5750    19.5850     2.4860 ha         1 DKP       0.196000
     38 H14        -22.7850    15.7940     4.1630 h4         1 DKP      -0.009900
     39 H15        -22.0080    16.6420     6.3480 ha         1 DKP       0.130000
     40 H16        -24.2430    21.0750     6.2200 hn         1 DKP       0.395000
@<TRIPOS>BOND
     1     1    10 ar  
     2     1    11 ar  
     3     1    25 1   
     4     2    17 1   
     5     2    22 1   
     6     2    23 1   
     7     3     4 1   
     8     3    26 1   
     9     3    27 1   
    10     3    28 1   
    11     4     5 1   
    12     4    29 1   
    13     4    30 1   
    14     5    21 1   
    15     5    31 1   
    16     5    32 1   
    17     6     7 1   
    18     6    12 1   
    19     6    21 1   
    20     6    33 1   
    21     7     8 ar  
    22     7    11 ar  
    23     8     9 ar  
    24     8    34 1   
    25     9    10 ar  
    26     9    35 1   
    27    10    36 1   
    28    11    24 1   
    29    12    13 2   
    30    12    20 1   
    31    13    14 1   
    32    13    37 1   
    33    14    18 ar  
    34    14    19 ar  
    35    15    16 ar  
    36    15    19 ar  
    37    15    38 1   
    38    16    17 ar  
    39    16    39 1   
    40    17    18 ar  
    41    18    20 1   
    42    20    40 1   
@<TRIPOS>SUBSTRUCTURE
     1 DKP         1 TEMP              0 ****  ****    0 ROOT
