@<TRIPOS>MOLECULE
DKQ
   17    17     1     0     0
SMALL
abcg2


@<TRIPOS>ATOM
      1 CL           3.3130    -0.0220     0.0850 cl         1 DKQ      -0.196000
      2 C4           1.5830    -0.0070     0.0290 ca         1 DKQ       0.130000
      3 C3           0.9010    -1.1790    -0.2590 ca         1 DKQ      -0.106500
      4 C2          -0.4850    -1.1610    -0.2960 ca         1 DKQ      -0.080000
      5 C5           0.9030     1.1760     0.2770 ca         1 DKQ      -0.106500
      6 C6          -0.4810     1.1800     0.2260 ca         1 DKQ      -0.080000
      7 C1          -1.1900     0.0160    -0.0590 ca         1 DKQ      -0.196900
      8 C           -2.6790     0.0520    -0.1270 ce         1 DKQ       0.663800
      9 N1          -3.3580     1.0300    -0.5890 n2         1 DKQ      -0.842100
     10 N           -3.2970    -1.0800     0.3080 nv         1 DKQ      -1.034200
     11 H1           1.4390    -2.0950    -0.4580 ha         1 DKQ       0.133000
     12 H2          -1.0120    -2.0770    -0.5290 ha         1 DKQ       0.126500
     13 H3           1.4430     2.0830     0.5120 ha         1 DKQ       0.133000
     14 H4          -1.0080     2.1030     0.4340 ha         1 DKQ       0.126500
     15 H5          -2.7500     1.7440    -0.9720 hn         1 DKQ       0.390400
     16 H6          -2.8480    -1.6300     1.0220 hn         1 DKQ       0.470500
     17 H7          -4.3010    -1.0400     0.3850 hn         1 DKQ       0.470500
@<TRIPOS>BOND
     1     1     2 1   
     2     2     3 ar  
     3     2     5 ar  
     4     3     4 ar  
     5     3    11 1   
     6     4     7 ar  
     7     4    12 1   
     8     5     6 ar  
     9     5    13 1   
    10     6     7 ar  
    11     6    14 1   
    12     7     8 1   
    13     8     9 2   
    14     8    10 1   
    15     9    15 1   
    16    10    16 1   
    17    10    17 1   
@<TRIPOS>SUBSTRUCTURE
     1 DKQ         1 TEMP              0 ****  ****    0 ROOT
