@<TRIPOS>MOLECULE
DKQ
   17    17     1     0     0
SMALL
No Charge or Current Charge


@<TRIPOS>ATOM
      1 Cl           3.3750    -0.0020     0.1150 cl         1 DKQ      -0.196000
      2 C4           1.6180    -0.0010     0.0420 ca         1 DKQ       0.130000
      3 C3           0.9250    -1.1930    -0.2180 ca         1 DKQ      -0.106500
      4 C2          -0.4790    -1.1940    -0.2770 ca         1 DKQ      -0.080000
      5 C5           0.9090     1.1930     0.2350 ca         1 DKQ      -0.106500
      6 C6          -0.4960     1.1980     0.1750 ca         1 DKQ      -0.080000
      7 C1          -1.2120    -0.0000    -0.0650 ca         1 DKQ      -0.196900
      8 C           -2.7040     0.0080    -0.1700 ce         1 DKQ       0.663800
      9 N1          -3.3800     1.0420    -0.4530 n2         1 DKQ      -0.842100
     10 N           -3.3670    -1.0980     0.2120 nv         1 DKQ      -1.034200
     11 H1           1.4780    -2.1150    -0.3780 ha         1 DKQ       0.133000
     12 H2          -0.9940    -2.1270    -0.5010 ha         1 DKQ       0.126500
     13 H3           1.4480     2.1170     0.4300 ha         1 DKQ       0.133000
     14 H4          -1.0230     2.1370     0.3340 ha         1 DKQ       0.126500
     15 H5          -2.7240     1.7660    -0.7720 hn         1 DKQ       0.390400
     16 H6          -2.8600    -1.7030     0.8460 hn         1 DKQ       0.470500
     17 H7          -4.3410    -0.9380     0.4360 hn         1 DKQ       0.470500
@<TRIPOS>BOND
     1     1     2 1   
     2     2     3 ar  
     3     2     5 ar  
     4     3     4 ar  
     5     3    11 1   
     6     4     7 ar  
     7     4    12 1   
     8     5     6 ar  
     9     5    13 1   
    10     6     7 ar  
    11     6    14 1   
    12     7     8 1   
    13     8     9 2   
    14     8    10 1   
    15     9    15 1   
    16    10    16 1   
    17    10    17 1   
@<TRIPOS>SUBSTRUCTURE
     1 DKQ         1 TEMP              0 ****  ****    0 ROOT
