@<TRIPOS>MOLECULE
DKR
   30    31     1     0     0
SMALL
No Charge or Current Charge


@<TRIPOS>ATOM
      1 C10         19.2720    25.2090    83.5810 ca         1 DKR      -0.101300
      2 C13         20.5830    25.5700    81.1020 ca         1 DKR      -0.074300
      3 C15         18.6930    24.7240    82.3930 ca         1 DKR      -0.096500
      4 C02         19.1410    19.2840    86.9310 cc         1 DKR      -0.177000
      5 C03         20.1950    20.0790    87.2870 cd         1 DKR      -0.191000
      6 C04         19.9830    21.3800    86.7920 cd         1 DKR      -0.139000
      7 C05         18.7850    21.4080    86.1160 cc         1 DKR      -0.258600
      8 C06         18.1820    22.5810    85.4390 c          1 DKR       0.638700
      9 C09         18.5670    25.0100    84.9150 c3         1 DKR       0.157300
     10 C11         20.5130    25.8710    83.5230 ca         1 DKR      -0.096500
     11 C12         21.1650    26.0510    82.2900 ca         1 DKR      -0.108500
     12 C14         19.3450    24.9040    81.1610 ca         1 DKR      -0.108500
     13 C16         21.2900    25.7610    79.7690 c3         1 DKR      -0.045800
     14 N01         18.2730    20.1070    86.2080 na         1 DKR      -0.063000
     15 N07         18.9280    23.7310    85.5230 ns         1 DKR      -0.497900
     16 O08         17.1080    22.5320    84.8550 o          1 DKR      -0.616100
     17 H151        17.7370    24.2060    82.4250 ha         1 DKR       0.110500
     18 H031        21.0590    19.7550    87.8620 ha         1 DKR       0.135000
     19 H041        20.6680    22.2120    86.9310 ha         1 DKR       0.126000
     20 H091        18.8490    25.8170    85.6050 h1         1 DKR       0.057700
     21 H092        17.4790    25.0640    84.7740 h1         1 DKR       0.057700
     22 H111        20.9750    26.2470    84.4330 ha         1 DKR       0.110500
     23 H121        22.1240    26.5630    82.2600 ha         1 DKR       0.110000
     24 H141        18.8860    24.5230    80.2510 ha         1 DKR       0.110000
     25 H161        21.8960    26.6750    79.7650 hc         1 DKR       0.041700
     26 H163        21.9560    24.9160    79.5560 hc         1 DKR       0.041700
     27 H162        20.5730    25.8390    78.9430 hc         1 DKR       0.041700
     28 H1          17.3900    19.8060    85.8040 hn         1 DKR       0.366000
     29 H071        19.8040    23.6620    86.0210 hn         1 DKR       0.321500
     30 H021        18.9390    18.2360    87.1220 h4         1 DKR       0.149000
@<TRIPOS>BOND
     1     1     3 ar  
     2     1     9 1   
     3     1    10 ar  
     4     2    11 ar  
     5     2    12 ar  
     6     2    13 1   
     7     3    12 ar  
     8     3    17 1   
     9     4     5 2   
    10     4    14 1   
    11     4    30 1   
    12     5     6 1   
    13     5    18 1   
    14     6     7 2   
    15     6    19 1   
    16     7     8 1   
    17     7    14 1   
    18     8    15 1   
    19     8    16 2   
    20     9    15 1   
    21     9    20 1   
    22     9    21 1   
    23    10    11 ar  
    24    10    22 1   
    25    11    23 1   
    26    12    24 1   
    27    13    25 1   
    28    13    26 1   
    29    13    27 1   
    30    14    28 1   
    31    15    29 1   
@<TRIPOS>SUBSTRUCTURE
     1 DKR         1 TEMP              0 ****  ****    0 ROOT
