@<TRIPOS>MOLECULE
DKR
   30    31     1     0     0
SMALL
abcg2


@<TRIPOS>ATOM
      1 C10         19.0650    25.0480    83.4530 ca         1 DKR      -0.101300
      2 C13         20.4800    25.4870    81.0510 ca         1 DKR      -0.074300
      3 C15         18.4580    25.6730    82.3680 ca         1 DKR      -0.096500
      4 C02         19.5890    19.4680    86.9110 cc         1 DKR      -0.177000
      5 C03         20.1430    20.3400    87.8250 cd         1 DKR      -0.191000
      6 C04         19.8570    21.6440    87.3760 cd         1 DKR      -0.139000
      7 C05         19.1360    21.5260    86.2030 cc         1 DKR      -0.258600
      8 C06         18.5590    22.5080    85.2780 c          1 DKR       0.638700
      9 C09         18.2940    24.8710    84.7400 c3         1 DKR       0.157300
     10 C11         20.3870    24.6410    83.3210 ca         1 DKR      -0.096500
     11 C12         21.0800    24.8550    82.1360 ca         1 DKR      -0.108500
     12 C14         19.1540    25.8910    81.1880 ca         1 DKR      -0.108500
     13 C16         21.2410    25.7440    79.7820 c3         1 DKR      -0.045800
     14 N01         18.9880    20.1950    85.9480 na         1 DKR      -0.063000
     15 N07         18.7680    23.8020    85.5810 ns         1 DKR      -0.497900
     16 O08         17.9210    22.1530    84.2920 o          1 DKR      -0.616100
     17 H151        17.4230    25.9890    82.4420 ha         1 DKR       0.110500
     18 H031        20.6900    20.0660    88.7130 ha         1 DKR       0.135000
     19 H041        20.1460    22.5630    87.8640 ha         1 DKR       0.126000
     20 H091        18.3570    25.7870    85.3300 h1         1 DKR       0.057700
     21 H092        17.2360    24.7250    84.5140 h1         1 DKR       0.057700
     22 H111        20.8860    24.1420    84.1420 ha         1 DKR       0.110500
     23 H121        22.1080    24.5200    82.0560 ha         1 DKR       0.110000
     24 H141        18.6530    26.3770    80.3580 ha         1 DKR       0.110000
     25 H161        21.7050    26.7320    79.7960 hc         1 DKR       0.041700
     26 H163        22.0390    25.0150    79.6400 hc         1 DKR       0.041700
     27 H162        20.5900    25.7060    78.9090 hc         1 DKR       0.041700
     28 H1          18.5050    19.8220    85.1470 hn         1 DKR       0.366000
     29 H071        19.3200    24.0430    86.3870 hn         1 DKR       0.321500
     30 H021        19.5800    18.3900    86.8870 h4         1 DKR       0.149000
@<TRIPOS>BOND
     1     1     3 ar  
     2     1     9 1   
     3     1    10 ar  
     4     2    11 ar  
     5     2    12 ar  
     6     2    13 1   
     7     3    12 ar  
     8     3    17 1   
     9     4     5 2   
    10     4    14 1   
    11     4    30 1   
    12     5     6 1   
    13     5    18 1   
    14     6     7 2   
    15     6    19 1   
    16     7     8 1   
    17     7    14 1   
    18     8    15 1   
    19     8    16 2   
    20     9    15 1   
    21     9    20 1   
    22     9    21 1   
    23    10    11 ar  
    24    10    22 1   
    25    11    23 1   
    26    12    24 1   
    27    13    25 1   
    28    13    26 1   
    29    13    27 1   
    30    14    28 1   
    31    15    29 1   
@<TRIPOS>SUBSTRUCTURE
     1 DKR         1 TEMP              0 ****  ****    0 ROOT
