@<TRIPOS>MOLECULE
DKS
   52    55     1     0     0
SMALL
abcg2


@<TRIPOS>ATOM
      1 C10        -28.9930    20.9160     3.9740 ca         1 DKS      -0.111000
      2 C13        -28.4030    23.3830     5.0700 ca         1 DKS       0.142000
      3 C17        -25.4090    24.5780     1.2150 c3         1 DKS       0.166800
      4 C20        -22.6090    22.3650    -0.0080 c6         1 DKS      -0.123900
      5 C21        -21.6430    23.4330    -0.4520 c6         1 DKS       0.169000
      6 C24        -21.7390    24.7010     0.3580 c6         1 DKS      -0.123900
      7 C26        -23.8030    21.9190     3.6930 cc         1 DKS      -0.351800
      8 C03        -23.3540    19.0740     5.8930 ca         1 DKS      -0.103600
      9 C04        -23.7960    20.2190     5.2370 ca         1 DKS      -0.058200
     10 C06        -24.8840    22.0470     4.5290 cd         1 DKS      -0.124300
     11 C07        -25.9270    23.1280     4.5660 c3         1 DKS       0.285800
     12 C08        -27.3550    22.6100     4.5660 ca         1 DKS      -0.109300
     13 C09        -27.6820    21.3690     4.0170 ca         1 DKS      -0.074000
     14 C11        -30.0150    21.7050     4.4890 ca         1 DKS      -0.101000
     15 C12        -29.7210    22.9460     5.0400 ca         1 DKS      -0.118000
     16 C19        -24.0200    22.9350     0.1080 c6         1 DKS       0.168800
     17 C25        -23.1900    25.1690     0.4500 c6         1 DKS       0.168800
     18 C27        -23.0890    20.7520     4.1200 ca         1 DKS       0.295800
     19 C29        -21.5520    19.0880     4.2630 ca         1 DKS       0.283900
     20 C30        -22.1920    18.5130     5.3670 ca         1 DKS      -0.141000
     21 F22        -20.3460    22.9430    -0.4160 f          1 DKS      -0.134500
     22 F23        -21.8680    23.7270    -1.7940 f          1 DKS      -0.134500
     23 N05        -24.8740    21.0320     5.4600 na         1 DKS      -0.199700
     24 N18        -24.0440    24.1090     0.9800 n3         1 DKS      -0.712600
     25 N28        -21.9720    20.1890     3.6340 nb         1 DKS      -0.670000
     26 O01        -25.1740    19.0650     7.4000 o          1 DKS      -0.722000
     27 O15        -25.6940    24.0880     3.5380 os         1 DKS      -0.443000
     28 O31        -23.5690    17.5180     7.6780 o          1 DKS      -0.722000
     29 CL1        -28.0880    24.9660     5.7580 cl         1 DKS      -0.219000
     30 H1         -29.2150    19.9500     3.5390 ha         1 DKS       0.119000
     31 H2         -25.3610    25.6040     1.5850 h1         1 DKS       0.036700
     32 H3         -25.9880    24.6010     0.2780 h1         1 DKS       0.036700
     33 H4         -22.5840    21.5380    -0.7190 hc         1 DKS       0.081700
     34 H5         -22.2730    21.9970     0.9620 hc         1 DKS       0.081700
     35 H6         -21.1100    25.4680    -0.0970 hc         1 DKS       0.081700
     36 H7         -21.3570    24.4850     1.3580 hc         1 DKS       0.081700
     37 H8         -23.5580    22.5900     2.8870 ha         1 DKS       0.218000
     38 H9         -25.7790    23.6900     5.4920 h1         1 DKS       0.093700
     39 H10        -26.8900    20.7530     3.6130 ha         1 DKS       0.142000
     40 H11        -31.0410    21.3620     4.4640 ha         1 DKS       0.110000
     41 H12        -30.5040    23.5730     5.4420 ha         1 DKS       0.121000
     42 H13        -27.2360    23.9710     2.1570 h1         1 DKS       0.035700
     43 H14        -26.0360    22.6810     2.0400 h1         1 DKS       0.035700
     44 H15        -24.6740    22.1680     0.5200 h1         1 DKS       0.037950
     45 H16        -24.4050    23.1860    -0.8940 h1         1 DKS       0.037950
     46 H17        -23.2470    26.0280     1.1180 h1         1 DKS       0.037950
     47 H18        -23.5330    25.5030    -0.5440 h1         1 DKS       0.037950
     48 H19        -20.6500    18.6280     3.8720 h4         1 DKS      -0.008900
     49 H20        -21.7830    17.6220     5.8210 ha         1 DKS       0.131000
     50 H21        -25.5440    20.8340     6.1890 hn         1 DKS       0.393000
     51 C16        -26.1670    23.7470     2.2310 c3         1 DKS       0.159600
     52 C02        -24.0900    18.4970     7.0940 c          1 DKS       0.714600
@<TRIPOS>BOND
     1     1    13 ar  
     2     1    14 ar  
     3     1    30 1   
     4     2    12 ar  
     5     2    15 ar  
     6     2    29 1   
     7     3    24 1   
     8     3    31 1   
     9     3    32 1   
    10     3    51 1   
    11     4     5 1   
    12     4    16 1   
    13     4    33 1   
    14     4    34 1   
    15     5     6 1   
    16     5    21 1   
    17     5    22 1   
    18     6    17 1   
    19     6    35 1   
    20     6    36 1   
    21     7    10 2   
    22     7    18 1   
    23     7    37 1   
    24     8     9 ar  
    25     8    20 ar  
    26     8    52 1   
    27     9    18 ar  
    28     9    23 1   
    29    10    11 1   
    30    10    23 1   
    31    11    12 1   
    32    11    27 1   
    33    11    38 1   
    34    12    13 ar  
    35    13    39 1   
    36    14    15 ar  
    37    14    40 1   
    38    15    41 1   
    39    16    24 1   
    40    16    44 1   
    41    16    45 1   
    42    17    24 1   
    43    17    46 1   
    44    17    47 1   
    45    18    25 ar  
    46    19    20 ar  
    47    19    25 ar  
    48    19    48 1   
    49    20    49 1   
    50    23    50 1   
    51    26    52 1   
    52    27    51 1   
    53    28    52 1   
    54    42    51 1   
    55    43    51 1   
@<TRIPOS>SUBSTRUCTURE
     1 DKS         1 TEMP              0 ****  ****    0 ROOT
