@<TRIPOS>MOLECULE
DKS
   52    55     1     0     0
SMALL
No Charge or Current Charge


@<TRIPOS>ATOM
      1 C10        -29.1860    21.1800     4.1710 ca         1 DKS      -0.111000
      2 C13        -28.2900    23.5840     5.3180 ca         1 DKS       0.142000
      3 C17        -25.4650    24.2250     0.9970 c3         1 DKS       0.166800
      4 C20        -21.9540    22.8000     0.2720 c6         1 DKS      -0.123900
      5 C21        -21.4120    23.9370    -0.6160 c6         1 DKS       0.169000
      6 C24        -21.9840    25.3100    -0.2120 c6         1 DKS      -0.123900
      7 C26        -23.6600    21.8140     3.9850 cc         1 DKS      -0.351800
      8 C03        -23.6490    18.7410     5.8480 ca         1 DKS      -0.103600
      9 C04        -23.9470    19.9960     5.2750 ca         1 DKS      -0.058200
     10 C06        -24.8790    21.9470     4.6470 cd         1 DKS      -0.124300
     11 C07        -25.8660    23.1080     4.6010 c3         1 DKS       0.285800
     12 C08        -27.3570    22.7300     4.6820 ca         1 DKS      -0.109300
     13 C09        -27.8260    21.5270     4.1030 ca         1 DKS      -0.074000
     14 C11        -30.0990    22.0300     4.8120 ca         1 DKS      -0.101000
     15 C12        -29.6490    23.2310     5.3820 ca         1 DKS      -0.118000
     16 C19        -23.4970    22.8430     0.3380 c6         1 DKS       0.168800
     17 C25        -23.5260    25.2590    -0.1280 c6         1 DKS       0.168800
     18 C27        -23.0870    20.5720     4.3760 ca         1 DKS       0.295800
     19 C29        -21.6070    18.8450     4.4790 ca         1 DKS       0.283900
     20 C30        -22.4240    18.1650     5.4140 ca         1 DKS      -0.141000
     21 F22        -20.0100    23.9700    -0.5310 f          1 DKS      -0.134500
     22 F23        -21.7210    23.6740    -1.9640 f          1 DKS      -0.134500
     23 N05        -25.0520    20.8120     5.4830 na         1 DKS      -0.199700
     24 N18        -23.9880    24.1800     0.7880 n3         1 DKS      -0.712600
     25 N28        -21.9250    20.0520     3.9490 nb         1 DKS      -0.670000
     26 O01        -25.5860    18.5950     7.2080 o          1 DKS      -0.722000
     27 O15        -25.6220    23.9100     3.4190 os         1 DKS      -0.443000
     28 O31        -24.2140    16.9440     7.2720 o          1 DKS      -0.722000
     29 Cl1        -27.7990    25.1170     6.0420 cl         1 DKS      -0.219000
     30 H1         -29.5320    20.2510     3.7220 ha         1 DKS       0.119000
     31 H2         -25.7770    25.2590     1.1980 h1         1 DKS       0.036700
     32 H3         -25.9700    23.9240     0.0680 h1         1 DKS       0.036700
     33 H4         -21.6210    21.8260    -0.1100 hc         1 DKS       0.081700
     34 H5         -21.5460    22.8970     1.2860 hc         1 DKS       0.081700
     35 H6         -21.6710    26.0800    -0.9290 hc         1 DKS       0.081700
     36 H7         -21.5790    25.6050     0.7650 hc         1 DKS       0.081700
     37 H8         -23.2300    22.5390     3.3030 ha         1 DKS       0.218000
     38 H9         -25.6230    23.7120     5.4850 h1         1 DKS       0.093700
     39 H10        -27.1380    20.8570     3.5910 ha         1 DKS       0.142000
     40 H11        -31.1520    21.7620     4.8640 ha         1 DKS       0.110000
     41 H12        -30.3560    23.8940     5.8740 ha         1 DKS       0.121000
     42 H13        -27.1240    23.3430     2.0710 h1         1 DKS       0.035700
     43 H14        -25.6850    22.3110     2.0380 h1         1 DKS       0.035700
     44 H15        -23.8290    22.0490     1.0210 h1         1 DKS       0.037950
     45 H16        -23.9080    22.6030    -0.6540 h1         1 DKS       0.037950
     46 H17        -23.8880    26.2380     0.2210 h1         1 DKS       0.037950
     47 H18        -23.9390    25.1050    -1.1370 h1         1 DKS       0.037950
     48 H19        -20.6680    18.4060     4.1450 h4         1 DKS      -0.008900
     49 H20        -22.0990    17.2000     5.7930 ha         1 DKS       0.131000
     50 H21        -25.8260    20.6170     6.1130 hn         1 DKS       0.393000
     51 C16        -26.0290    23.3460     2.1490 c3         1 DKS       0.159600
     52 C02        -24.5540    18.0410     6.8520 c          1 DKS       0.714600
@<TRIPOS>BOND
     1     1    13 ar  
     2     1    14 ar  
     3     1    30 1   
     4     2    12 ar  
     5     2    15 ar  
     6     2    29 1   
     7     3    24 1   
     8     3    31 1   
     9     3    32 1   
    10     3    51 1   
    11     4     5 1   
    12     4    16 1   
    13     4    33 1   
    14     4    34 1   
    15     5     6 1   
    16     5    21 1   
    17     5    22 1   
    18     6    17 1   
    19     6    35 1   
    20     6    36 1   
    21     7    10 2   
    22     7    18 1   
    23     7    37 1   
    24     8     9 ar  
    25     8    20 ar  
    26     8    52 1   
    27     9    18 ar  
    28     9    23 1   
    29    10    11 1   
    30    10    23 1   
    31    11    12 1   
    32    11    27 1   
    33    11    38 1   
    34    12    13 ar  
    35    13    39 1   
    36    14    15 ar  
    37    14    40 1   
    38    15    41 1   
    39    16    24 1   
    40    16    44 1   
    41    16    45 1   
    42    17    24 1   
    43    17    46 1   
    44    17    47 1   
    45    18    25 ar  
    46    19    20 ar  
    47    19    25 ar  
    48    19    48 1   
    49    20    49 1   
    50    23    50 1   
    51    26    52 1   
    52    27    51 1   
    53    28    52 1   
    54    42    51 1   
    55    43    51 1   
@<TRIPOS>SUBSTRUCTURE
     1 DKS         1 TEMP              0 ****  ****    0 ROOT
