@<TRIPOS>MOLECULE
DKU
   49    53     1     0     0
SMALL
abcg2


@<TRIPOS>ATOM
      1 C12         -0.6880     1.3500    -0.5110 c3         1 DKU      -0.007200
      2 C13          0.0630     0.7600     0.6930 c3         1 DKU      -0.091700
      3 C14          1.5340     0.7530     0.4640 cc         1 DKU       0.431800
      4 C20          5.8930     0.0470    -0.3640 ca         1 DKU      -0.099000
      5 C10         -2.9040     0.0740    -0.5290 c          1 DKU       0.597900
      6 C5          -4.3480     0.1640    -0.2750 ca         1 DKU      -0.227600
      7 C6          -5.1890    -0.9460    -0.4240 ca         1 DKU      -0.025000
      8 C1          -6.5400    -0.8380    -0.1850 ca         1 DKU      -0.146000
      9 C2          -7.0820     0.3890     0.2110 ca         1 DKU      -0.056000
     10 C3          -6.2770     1.4980     0.3670 ca         1 DKU      -0.139000
     11 C4          -4.9120     1.3740     0.1220 ca         1 DKU       0.143100
     12 O7          -4.1560     2.4820     0.2830 os         1 DKU      -0.204200
     13 C8          -2.8410     2.4170     0.0640 cc         1 DKU       0.044100
     14 C9          -2.1720     1.3150    -0.3180 cd         1 DKU      -0.290400
     15 N18          2.2730     1.8270     0.4440 nd         1 DKU      -0.585100
     16 C17          3.5520     1.3980     0.1850 ca         1 DKU       0.074400
     17 C22          4.7340     2.1270     0.0480 ca         1 DKU      -0.053000
     18 C21          5.9120     1.4490    -0.2260 ca         1 DKU      -0.099300
     19 C29          7.2090     2.1910    -0.3850 c3         1 DKU      -0.041800
     20 C19          4.7350    -0.6970    -0.2320 ca         1 DKU      -0.104000
     21 C16          3.5690     0.0050     0.0490 ca         1 DKU      -0.075200
     22 N15          2.2590    -0.3880     0.2280 na         1 DKU      -0.086400
     23 C23          1.7910    -1.7230     0.1960 ca         1 DKU      -0.007200
     24 C28          2.3040    -2.6470     1.0980 ca         1 DKU      -0.102000
     25 C27          1.8590    -3.9610     1.0610 ca         1 DKU      -0.100000
     26 C26          0.8940    -4.3460     0.1390 ca         1 DKU      -0.108000
     27 C25          0.3800    -3.4150    -0.7530 ca         1 DKU      -0.100000
     28 C24          0.8360    -2.1050    -0.7370 ca         1 DKU      -0.102000
     29 H1          -0.3580     2.3790    -0.6640 hc         1 DKU       0.061200
     30 H2          -0.4240     0.8000    -1.4170 hc         1 DKU       0.061200
     31 H3          -0.1430     1.3710     1.5740 hc         1 DKU       0.068700
     32 H4          -0.2970    -0.2460     0.9100 hc         1 DKU       0.068700
     33 H5           6.8210    -0.4680    -0.5840 ha         1 DKU       0.110000
     34 H6          -4.7610    -1.8900    -0.7330 ha         1 DKU       0.137000
     35 H7          -7.1850    -1.6980    -0.3030 ha         1 DKU       0.123000
     36 H8          -8.1440     0.4740     0.3980 ha         1 DKU       0.121000
     37 H9          -6.6880     2.4510     0.6730 ha         1 DKU       0.135000
     38 H10         -2.3630     3.3740     0.2300 h4         1 DKU       0.233000
     39 H11          4.7260     3.2050     0.1500 ha         1 DKU       0.125000
     40 H12          7.6310     2.0430    -1.3800 hc         1 DKU       0.039700
     41 H13          7.0770     3.2620    -0.2360 hc         1 DKU       0.039700
     42 H14          7.9560     1.8440     0.3320 hc         1 DKU       0.039700
     43 H15          4.7470    -1.7730    -0.3430 ha         1 DKU       0.122000
     44 H16          3.0390    -2.3420     1.8320 ha         1 DKU       0.131000
     45 H17          2.2610    -4.6800     1.7620 ha         1 DKU       0.121000
     46 H18          0.5420    -5.3690     0.1190 ha         1 DKU       0.116000
     47 H19         -0.3730    -3.7080    -1.4720 ha         1 DKU       0.121000
     48 H20          0.4420    -1.3860    -1.4430 ha         1 DKU       0.131000
     49 O11         -2.3650    -0.9610    -0.8950 o          1 DKU      -0.548100
@<TRIPOS>BOND
     1     1     2 1   
     2     1    14 1   
     3     1    29 1   
     4     1    30 1   
     5     2     3 1   
     6     2    31 1   
     7     2    32 1   
     8     3    15 2   
     9     3    22 1   
    10     4    18 ar  
    11     4    20 ar  
    12     4    33 1   
    13     5     6 1   
    14     5    14 1   
    15     5    49 2   
    16     6     7 ar  
    17     6    11 ar  
    18     7     8 ar  
    19     7    34 1   
    20     8     9 ar  
    21     8    35 1   
    22     9    10 ar  
    23     9    36 1   
    24    10    11 ar  
    25    10    37 1   
    26    11    12 1   
    27    12    13 1   
    28    13    14 2   
    29    13    38 1   
    30    15    16 1   
    31    16    17 ar  
    32    16    21 ar  
    33    17    18 ar  
    34    17    39 1   
    35    18    19 1   
    36    19    40 1   
    37    19    41 1   
    38    19    42 1   
    39    20    21 ar  
    40    20    43 1   
    41    21    22 1   
    42    22    23 1   
    43    23    24 ar  
    44    23    28 ar  
    45    24    25 ar  
    46    24    44 1   
    47    25    26 ar  
    48    25    45 1   
    49    26    27 ar  
    50    26    46 1   
    51    27    28 ar  
    52    27    47 1   
    53    28    48 1   
@<TRIPOS>SUBSTRUCTURE
     1 DKU         1 TEMP              0 ****  ****    0 ROOT
