@<TRIPOS>MOLECULE
DKU
   49    53     1     0     0
SMALL
No Charge or Current Charge


@<TRIPOS>ATOM
      1 C12         -0.7350     1.3680    -0.5740 c3         1 DKU      -0.007200
      2 C13          0.0720     0.8760     0.6470 c3         1 DKU      -0.091700
      3 C14          1.5570     0.8320     0.3930 cc         1 DKU       0.431800
      4 C20          5.9810    -0.0410    -0.3820 ca         1 DKU      -0.099000
      5 C10         -2.9280     0.0870    -0.5250 c          1 DKU       0.597900
      6 C5          -4.3750     0.1150    -0.2450 ca         1 DKU      -0.227600
      7 C6          -5.1670    -1.0470    -0.3770 ca         1 DKU      -0.025000
      8 C1          -6.5440    -0.9960    -0.1040 ca         1 DKU      -0.146000
      9 C2          -7.1330     0.2120     0.2980 ca         1 DKU      -0.056000
     10 C3          -6.3400     1.3640     0.4260 ca         1 DKU      -0.139000
     11 C4          -4.9600     1.3250     0.1580 ca         1 DKU       0.143100
     12 O7          -4.2660     2.5170     0.3090 os         1 DKU      -0.204200
     13 C8          -2.8930     2.5140     0.0940 cc         1 DKU       0.044100
     14 C9          -2.2300     1.3670    -0.3170 cd         1 DKU      -0.290400
     15 N18          2.3660     1.9160     0.4070 nd         1 DKU      -0.585100
     16 C17          3.6390     1.3950     0.1510 ca         1 DKU       0.074400
     17 C22          4.8510     2.0940     0.0570 ca         1 DKU      -0.053000
     18 C21          6.0360     1.3660    -0.2100 ca         1 DKU      -0.099300
     19 C29          7.3680     2.0940    -0.3220 c3         1 DKU      -0.041800
     20 C19          4.7520    -0.7260    -0.2840 ca         1 DKU      -0.104000
     21 C16          3.6100     0.0380    -0.0140 ca         1 DKU      -0.075200
     22 N15          2.3090    -0.3170     0.1300 na         1 DKU      -0.086400
     23 C23          1.8010    -1.6130     0.1300 ca         1 DKU      -0.007200
     24 C28          2.1160    -2.4930     1.1830 ca         1 DKU      -0.102000
     25 C27          1.6020    -3.8010     1.1900 ca         1 DKU      -0.100000
     26 C26          0.7710    -4.2340     0.1420 ca         1 DKU      -0.108000
     27 C25          0.4570    -3.3610    -0.9130 ca         1 DKU      -0.100000
     28 C24          0.9730    -2.0530    -0.9200 ca         1 DKU      -0.102000
     29 H1          -0.3990     2.3820    -0.8300 hc         1 DKU       0.061200
     30 H2          -0.4880     0.7520    -1.4480 hc         1 DKU       0.061200
     31 H3          -0.1270     1.5400     1.4960 hc         1 DKU       0.068700
     32 H4          -0.2880    -0.1150     0.9460 hc         1 DKU       0.068700
     33 H5           6.8900    -0.6000    -0.5920 ha         1 DKU       0.110000
     34 H6          -4.7210    -1.9900    -0.6880 ha         1 DKU       0.137000
     35 H7          -7.1530    -1.8920    -0.2060 ha         1 DKU       0.123000
     36 H8          -8.2000     0.2560     0.5090 ha         1 DKU       0.121000
     37 H9          -6.7990     2.3000     0.7370 ha         1 DKU       0.135000
     38 H10         -2.4400     3.4860     0.2680 h4         1 DKU       0.233000
     39 H11          4.8730     3.1730     0.1870 ha         1 DKU       0.125000
     40 H12          7.5730     2.3750    -1.3610 hc         1 DKU       0.039700
     41 H13          7.3750     3.0100     0.2810 hc         1 DKU       0.039700
     42 H14          8.1960     1.4650     0.0260 hc         1 DKU       0.039700
     43 H15          4.6950    -1.8040    -0.4160 ha         1 DKU       0.122000
     44 H16          2.7580    -2.1610     1.9970 ha         1 DKU       0.131000
     45 H17          1.8460    -4.4780     2.0060 ha         1 DKU       0.121000
     46 H18          0.3710    -5.2460     0.1480 ha         1 DKU       0.116000
     47 H19         -0.1860    -3.6950    -1.7240 ha         1 DKU       0.121000
     48 H20          0.7290    -1.3840    -1.7420 ha         1 DKU       0.131000
     49 O11         -2.3650    -0.9360    -0.8970 o          1 DKU      -0.548100
@<TRIPOS>BOND
     1     1     2 1   
     2     1    14 1   
     3     1    29 1   
     4     1    30 1   
     5     2     3 1   
     6     2    31 1   
     7     2    32 1   
     8     3    15 2   
     9     3    22 1   
    10     4    18 ar  
    11     4    20 ar  
    12     4    33 1   
    13     5     6 1   
    14     5    14 1   
    15     5    49 2   
    16     6     7 ar  
    17     6    11 ar  
    18     7     8 ar  
    19     7    34 1   
    20     8     9 ar  
    21     8    35 1   
    22     9    10 ar  
    23     9    36 1   
    24    10    11 ar  
    25    10    37 1   
    26    11    12 1   
    27    12    13 1   
    28    13    14 2   
    29    13    38 1   
    30    15    16 1   
    31    16    17 ar  
    32    16    21 ar  
    33    17    18 ar  
    34    17    39 1   
    35    18    19 1   
    36    19    40 1   
    37    19    41 1   
    38    19    42 1   
    39    20    21 ar  
    40    20    43 1   
    41    21    22 1   
    42    22    23 1   
    43    23    24 ar  
    44    23    28 ar  
    45    24    25 ar  
    46    24    44 1   
    47    25    26 ar  
    48    25    45 1   
    49    26    27 ar  
    50    26    46 1   
    51    27    28 ar  
    52    27    47 1   
    53    28    48 1   
@<TRIPOS>SUBSTRUCTURE
     1 DKU         1 TEMP              0 ****  ****    0 ROOT
