@<TRIPOS>MOLECULE
DKV
   50    53     1     0     0
SMALL
bcc


@<TRIPOS>ATOM
      1 C10         -1.4420     0.2120     0.7540 cc         1 DKV      -0.091300
      2 C13         -0.2980     2.0410    -1.7560 ca         1 DKV      -0.098000
      3 C15         -1.3050     4.1380    -2.3500 ca         1 DKV      -0.124000
      4 C17         -1.3130     3.3860    -0.0760 ca         1 DKV       0.045400
      5 C21          3.1850     0.1470    -0.0750 c6         1 DKV      -0.065700
      6 C22          4.5000     0.9250    -0.1350 c6         1 DKV      -0.070900
      7 C24          5.7670    -1.1720     0.3730 c6         1 DKV       0.418600
      8 C28          3.3130    -1.0460     0.8720 c6         1 DKV      -0.070900
      9 C02         -3.1500    -2.8860    -1.9260 c          1 DKV       0.934200
     10 C03         -3.5620    -2.3810    -0.5530 ca         1 DKV      -0.108600
     11 C04         -4.6530    -2.8780     0.1420 ca         1 DKV      -0.227300
     12 C05         -4.9850    -2.3790     1.4080 ca         1 DKV       0.353200
     13 C07         -3.2610    -0.9270     1.3910 ca         1 DKV       0.365100
     14 C08         -2.8630    -1.3740     0.1080 ca         1 DKV      -0.124500
     15 C11         -0.2870     1.1510     0.6100 c3         1 DKV       0.261600
     16 C12         -0.6290     2.2230    -0.4150 ca         1 DKV      -0.104300
     17 C14         -0.6270     2.9840    -2.7160 ca         1 DKV      -0.128000
     18 C16         -1.6500     4.3420    -1.0240 ca         1 DKV      -0.131000
     19 C23          5.6650     0.0260    -0.5390 c6         1 DKV      -0.123400
     20 C27          4.4790    -1.9520     0.4820 c6         1 DKV      -0.123400
     21 C29         -2.3360     0.0870     1.7820 cd         1 DKV      -0.298800
     22 F25          6.1520    -0.7550     1.6280 f          1 DKV      -0.252300
     23 F26          6.7800    -1.9980    -0.0480 f          1 DKV      -0.252300
     24 N06         -4.3180    -1.4260     2.0380 nb         1 DKV      -0.666000
     25 N09         -1.7650    -0.6570    -0.2490 na         1 DKV      -0.119400
     26 O01         -2.1350    -2.3490    -2.4190 o          1 DKV      -0.826800
     27 O19          0.8280     0.3930     0.2290 os         1 DKV      -0.398600
     28 O30         -3.8490    -3.7770    -2.4320 o          1 DKV      -0.826800
     29 H1           0.2410     1.1500    -2.0540 ha         1 DKV       0.153000
     30 H2          -1.5660     4.8820    -3.0910 ha         1 DKV       0.127000
     31 H3           2.2120     1.4420     1.3510 h1         1 DKV       0.024200
     32 H4           2.0620     1.9610    -0.3340 h1         1 DKV       0.024200
     33 H5           2.9700    -0.2280    -1.0840 hc         1 DKV       0.065700
     34 H6           4.4210     1.7430    -0.8540 hc         1 DKV       0.055700
     35 H7           4.7040     1.3840     0.8370 hc         1 DKV       0.055700
     36 H8           3.4490    -0.6820     1.8960 hc         1 DKV       0.055700
     37 H9           2.3960    -1.6360     0.8730 hc         1 DKV       0.055700
     38 H10         -5.2600    -3.6600    -0.2940 ha         1 DKV       0.147000
     39 H11         -5.8440    -2.7900     1.9280 h4         1 DKV      -0.010900
     40 H12         -0.1150     1.6270     1.5830 h1         1 DKV       0.058700
     41 H13         -0.3540     2.8160    -3.7490 ha         1 DKV       0.134000
     42 H14         -2.1790     5.2370    -0.7260 ha         1 DKV       0.138000
     43 H15          5.5120    -0.3370    -1.5590 hc         1 DKV       0.065450
     44 H16          6.6060     0.5820    -0.5310 hc         1 DKV       0.065450
     45 H17          4.2770    -2.4090    -0.4910 hc         1 DKV       0.065450
     46 H18          4.5960    -2.7650     1.2020 hc         1 DKV       0.065450
     47 H19         -2.3320     0.6540     2.6990 ha         1 DKV       0.144000
     48 H20         -1.2790    -0.8200    -1.1180 hn         1 DKV       0.343700
     49 C20          2.0590     1.0820     0.3240 c3         1 DKV       0.140400
     50 CL1         -1.7800     3.6810     1.5720 cl         1 DKV      -0.121400
@<TRIPOS>BOND
     1     1    15 1   
     2     1    21 2   
     3     1    25 1   
     4     2    16 ar  
     5     2    17 ar  
     6     2    29 1   
     7     3    17 ar  
     8     3    18 ar  
     9     3    30 1   
    10     4    16 ar  
    11     4    18 ar  
    12     4    50 1   
    13     5     6 1   
    14     5     8 1   
    15     5    33 1   
    16     5    49 1   
    17     6    19 1   
    18     6    34 1   
    19     6    35 1   
    20     7    19 1   
    21     7    20 1   
    22     7    22 1   
    23     7    23 1   
    24     8    20 1   
    25     8    36 1   
    26     8    37 1   
    27     9    10 1   
    28     9    26 1   
    29     9    28 1   
    30    10    11 ar  
    31    10    14 ar  
    32    11    12 ar  
    33    11    38 1   
    34    12    24 ar  
    35    12    39 1   
    36    13    14 ar  
    37    13    21 1   
    38    13    24 ar  
    39    14    25 1   
    40    15    16 1   
    41    15    27 1   
    42    15    40 1   
    43    17    41 1   
    44    18    42 1   
    45    19    43 1   
    46    19    44 1   
    47    20    45 1   
    48    20    46 1   
    49    21    47 1   
    50    25    48 1   
    51    27    49 1   
    52    31    49 1   
    53    32    49 1   
@<TRIPOS>SUBSTRUCTURE
     1 DKV         1 TEMP              0 ****  ****    0 ROOT
