@<TRIPOS>MOLECULE
DKV
   50    53     1     0     0
SMALL
No Charge or Current Charge


@<TRIPOS>ATOM
      1 C10         -1.6230     0.2270     0.5480 cc         1 DKV      -0.091300
      2 C13         -0.9790     2.2680    -1.6230 ca         1 DKV      -0.080000
      3 C15         -1.0770     4.6810    -1.9130 ca         1 DKV      -0.106000
      4 C17         -0.5560     3.7350     0.2740 ca         1 DKV       0.137000
      5 C21          3.1260     0.2510    -0.1840 c6         1 DKV      -0.065700
      6 C22          4.4820     1.0110    -0.1330 c6         1 DKV      -0.070900
      7 C24          5.7250    -1.2160     0.0890 c6         1 DKV       0.176000
      8 C28          3.2200    -1.0880     0.6090 c6         1 DKV      -0.070900
      9 C02         -2.3020    -4.1040    -0.5870 c          1 DKV       0.723600
     10 C03         -3.2470    -3.0140    -0.1080 ca         1 DKV      -0.108600
     11 C04         -4.6400    -3.2390     0.0680 ca         1 DKV      -0.144000
     12 C05         -5.4850    -2.1920     0.5170 ca         1 DKV       0.287900
     13 C07         -3.7240    -0.7630     0.6260 ca         1 DKV       0.299800
     14 C08         -2.8250    -1.7040     0.1980 ca         1 DKV      -0.059200
     15 C11         -0.4470     1.1780     0.6070 c3         1 DKV       0.284800
     16 C12         -0.6670     2.4260    -0.2550 ca         1 DKV      -0.104300
     17 C14         -1.1840     3.3880    -2.4460 ca         1 DKV      -0.110000
     18 C16         -0.7620     4.8520    -0.5550 ca         1 DKV      -0.113000
     19 C23          5.6490     0.1350    -0.6610 c6         1 DKV      -0.123400
     20 C27          4.3790    -1.9790     0.0880 c6         1 DKV      -0.123400
     21 C29         -2.9670     0.4340     0.8400 cd         1 DKV      -0.348800
     22 F25          6.1400    -0.9960     1.4150 f          1 DKV      -0.131000
     23 F26          6.7130    -2.0200    -0.5040 f          1 DKV      -0.131000
     24 N06         -5.0420    -0.9410     0.8020 nb         1 DKV      -0.666000
     25 N09         -1.5630    -1.1260     0.1460 na         1 DKV      -0.169700
     26 O01         -1.1140    -3.8400    -0.7180 o          1 DKV      -0.721500
     27 O19          0.7160     0.4720     0.1290 os         1 DKV      -0.445000
     28 O30         -2.7670    -5.2100    -0.8260 o          1 DKV      -0.721500
     29 H1          -1.0620     1.2700    -2.0480 ha         1 DKV       0.135000
     30 H2          -1.2350     5.5490    -2.5500 ha         1 DKV       0.109000
     31 H3           2.1250     1.3740     1.3920 h1         1 DKV       0.024200
     32 H4           1.9860     2.0980    -0.2280 h1         1 DKV       0.024200
     33 H5           2.8950     0.0240    -1.2340 hc         1 DKV       0.065700
     34 H6           4.4190     1.9310    -0.7300 hc         1 DKV       0.055700
     35 H7           4.6950     1.3260     0.8980 hc         1 DKV       0.055700
     36 H8           3.3660    -0.8780     1.6780 hc         1 DKV       0.055700
     37 H9           2.2750    -1.6430     0.5310 hc         1 DKV       0.055700
     38 H10         -5.0740    -4.2140    -0.1390 ha         1 DKV       0.129000
     39 H11         -6.5520    -2.3650     0.6520 h4         1 DKV      -0.010900
     40 H12         -0.3080     1.4470     1.6610 h1         1 DKV       0.058700
     41 H13         -1.4260     3.2510    -3.4980 ha         1 DKV       0.116000
     42 H14         -0.6750     5.8540    -0.1420 ha         1 DKV       0.120000
     43 H15          5.5090    -0.0510    -1.7350 hc         1 DKV       0.065450
     44 H16          6.6000     0.6750    -0.5600 hc         1 DKV       0.065450
     45 H17          4.1500    -2.3140    -0.9330 hc         1 DKV       0.065450
     46 H18          4.4600    -2.8860     0.7020 hc         1 DKV       0.065450
     47 H19         -3.3880     1.3750     1.1780 ha         1 DKV       0.194000
     48 H20         -0.7190    -1.6120    -0.1460 hn         1 DKV       0.394000
     49 C20          1.9670     1.1520     0.3280 c3         1 DKV       0.163600
     50 Cl1         -0.1510     4.0260     1.9660 cl         1 DKV      -0.213000
@<TRIPOS>BOND
     1     1    15 1   
     2     1    21 2   
     3     1    25 1   
     4     2    16 ar  
     5     2    17 ar  
     6     2    29 1   
     7     3    17 ar  
     8     3    18 ar  
     9     3    30 1   
    10     4    16 ar  
    11     4    18 ar  
    12     4    50 1   
    13     5     6 1   
    14     5     8 1   
    15     5    33 1   
    16     5    49 1   
    17     6    19 1   
    18     6    34 1   
    19     6    35 1   
    20     7    19 1   
    21     7    20 1   
    22     7    22 1   
    23     7    23 1   
    24     8    20 1   
    25     8    36 1   
    26     8    37 1   
    27     9    10 1   
    28     9    26 1   
    29     9    28 1   
    30    10    11 ar  
    31    10    14 ar  
    32    11    12 ar  
    33    11    38 1   
    34    12    24 ar  
    35    12    39 1   
    36    13    14 ar  
    37    13    21 1   
    38    13    24 ar  
    39    14    25 1   
    40    15    16 1   
    41    15    27 1   
    42    15    40 1   
    43    17    41 1   
    44    18    42 1   
    45    19    43 1   
    46    19    44 1   
    47    20    45 1   
    48    20    46 1   
    49    21    47 1   
    50    25    48 1   
    51    27    49 1   
    52    31    49 1   
    53    32    49 1   
@<TRIPOS>SUBSTRUCTURE
     1 DKV         1 TEMP              0 ****  ****    0 ROOT
