@<TRIPOS>MOLECULE
DKW
   37    39     1     0     0
SMALL
bcc


@<TRIPOS>ATOM
      1 N3           3.2590     1.3480     0.1620 nb         1 DKW      -0.750000
      2 C4           2.5860     0.1980     0.1530 ca         1 DKW       0.441800
      3 C5           3.0560    -1.0350    -0.2690 ca         1 DKW      -0.225200
      4 C6           4.3840    -1.0650    -0.7340 ca         1 DKW       0.777200
      5 C8           1.0640    -1.3590     0.3600 cc         1 DKW       0.420700
      6 C2           4.4890     1.1920    -0.2950 ca         1 DKW       0.705900
      7 N1           5.0750     0.0800    -0.7320 nb         1 DKW      -0.829000
      8 CAK          0.4180     0.9990     1.0980 c5         1 DKW       0.270800
      9 CAM         -1.8670     0.6470     0.9480 c5         1 DKW       0.053100
     10 CAN         -1.3980     1.2100    -0.4020 c5         1 DKW       0.071100
     11 CAP         -0.1100     1.9320     0.0110 c5         1 DKW       0.082100
     12 CAR         -2.6800    -0.6280     0.7840 c          1 DKW       0.664100
     13 CAU         -4.8430    -1.5010     0.0690 c3         1 DKW       0.190100
     14 CAV         -5.9090    -1.0640    -0.8230 c1         1 DKW      -0.178100
     15 CAW         -6.7890    -0.7010    -1.5540 c1         1 DKW      -0.121500
     16 N6           4.9660    -2.1790    -1.1830 nv         1 DKW      -0.953500
     17 N7           2.0890    -1.9950    -0.1310 nd         1 DKW      -0.558100
     18 N9           1.3010    -0.0240     0.5510 na         1 DKW      -0.287000
     19 NAT         -3.9240    -0.4120     0.3380 ns         1 DKW      -0.571900
     20 OAL         -0.6940     0.3880     1.6850 os         1 DKW      -0.363600
     21 OAO         -2.3770     2.0540    -0.9310 oh         1 DKW      -0.593800
     22 OAQ         -0.3970     3.1600     0.6170 oh         1 DKW      -0.578800
     23 OAS         -2.2260    -1.7380     1.0040 o          1 DKW      -0.586100
     24 H1           0.1140    -1.8080     0.6080 h5         1 DKW       0.098800
     25 H2           5.1070     2.0840    -0.3210 h5         1 DKW       0.045100
     26 H3           0.9860     1.5480     1.8540 h2         1 DKW       0.127700
     27 H4          -2.4740     1.4010     1.4640 h1         1 DKW       0.090700
     28 H5          -1.1560     0.3930    -1.0920 h1         1 DKW       0.069700
     29 H6           0.5980     2.0340    -0.8200 h1         1 DKW       0.083700
     30 H7          -5.2780    -1.8850     0.9960 h1         1 DKW       0.072700
     31 H8          -4.3000    -2.3290    -0.3910 h1         1 DKW       0.072700
     32 H9          -7.5720    -0.3820    -2.2040 ha         1 DKW       0.171500
     33 H10          4.4990    -3.0670    -1.1220 hn         1 DKW       0.450800
     34 H11          5.9360    -2.1700    -1.4480 hn         1 DKW       0.450800
     35 H12         -4.2570     0.5320     0.2240 hn         1 DKW       0.333500
     36 H13         -2.2920     2.0730    -1.8900 ho         1 DKW       0.426000
     37 H14         -1.0840     3.5950     0.0990 ho         1 DKW       0.425000
@<TRIPOS>BOND
     1     1     2 ar  
     2     1     6 ar  
     3     2     3 ar  
     4     2    18 1   
     5     3     4 ar  
     6     3    17 1   
     7     4     7 ar  
     8     4    16 1   
     9     5    17 2   
    10     5    18 1   
    11     5    24 1   
    12     6     7 ar  
    13     6    25 1   
    14     8    11 1   
    15     8    18 1   
    16     8    20 1   
    17     8    26 1   
    18     9    10 1   
    19     9    12 1   
    20     9    20 1   
    21     9    27 1   
    22    10    11 1   
    23    10    21 1   
    24    10    28 1   
    25    11    22 1   
    26    11    29 1   
    27    12    19 1   
    28    12    23 2   
    29    13    14 1   
    30    13    19 1   
    31    13    30 1   
    32    13    31 1   
    33    14    15 3   
    34    15    32 1   
    35    16    33 1   
    36    16    34 1   
    37    19    35 1   
    38    21    36 1   
    39    22    37 1   
@<TRIPOS>SUBSTRUCTURE
     1 DKW         1 TEMP              0 ****  ****    0 ROOT
