@<TRIPOS>MOLECULE
DKW
   37    39     1     0     0
SMALL
No Charge or Current Charge


@<TRIPOS>ATOM
      1 N3           2.7400     0.3640     1.4830 nb         1 DKW      -0.224000
      2 C4           2.2650     0.1860     0.2340 ca         1 DKW       0.113500
      3 C5           2.7330    -0.8060    -0.5900 ca         1 DKW      -0.094600
      4 C6           3.7370    -1.6640    -0.0960 ca         1 DKW       0.448900
      5 C8           1.2440     0.2330    -1.7470 cc         1 DKW       0.420700
      6 C2           3.7010    -0.5060     1.8770 ca         1 DKW       0.179900
      7 N1           4.2260    -1.5200     1.1460 nb         1 DKW      -0.303000
      8 CAK          0.5410     2.0180    -0.0360 c5         1 DKW       0.323300
      9 CAM         -1.5550     1.2100     0.7080 c5         1 DKW       0.076300
     10 CAN         -1.6990     1.6080    -0.8030 c5         1 DKW       0.094300
     11 CAP         -0.5350     2.6290    -0.9980 c5         1 DKW       0.105300
     12 CAR         -1.7410    -0.3330     0.8650 c          1 DKW       0.597100
     13 CAU         -3.5920    -2.0110     0.6910 c3         1 DKW       0.190100
     14 CAV         -5.0080    -1.9910     0.3080 c1         1 DKW      -0.178100
     15 CAW         -6.1740    -1.9450    -0.0130 c1         1 DKW      -0.209000
     16 N6           4.2640    -2.6790    -0.8330 nv         1 DKW      -1.063900
     17 N7           2.1050    -0.7980    -1.8390 nd         1 DKW      -0.558100
     18 N9           1.3130     0.8500    -0.4890 na         1 DKW      -0.316300
     19 NAT         -3.0560    -0.6580     0.6200 ns         1 DKW      -0.504900
     20 OAL         -0.2310     1.6540     1.1310 os         1 DKW      -0.410000
     21 OAO         -2.9700     2.2180    -1.0940 oh         1 DKW      -0.716000
     22 OAQ         -0.9780     3.9350    -0.5960 oh         1 DKW      -0.701000
     23 OAS         -0.9050    -1.1660     1.1920 o          1 DKW      -0.586100
     24 H1           0.5750     0.5660    -2.5320 h5         1 DKW       0.098800
     25 H2           4.0920    -0.3770     2.8850 h5         1 DKW       0.045100
     26 H3           1.2880     2.7780     0.2290 h2         1 DKW       0.127700
     27 H4          -2.3050     1.7110     1.3340 h1         1 DKW       0.090700
     28 H5          -1.5420     0.7260    -1.4420 h1         1 DKW       0.069700
     29 H6          -0.1800     2.6530    -2.0380 h1         1 DKW       0.083700
     30 H7          -3.4900    -2.3940     1.7160 h1         1 DKW       0.072700
     31 H8          -3.0330    -2.6660     0.0100 h1         1 DKW       0.072700
     32 H9          -7.2090    -1.9160    -0.2920 ha         1 DKW       0.259000
     33 H10          3.7590    -2.9360    -1.6770 hn         1 DKW       0.506000
     34 H11          4.7450    -3.4290    -0.3440 hn         1 DKW       0.506000
     35 H12         -3.6810     0.0930     0.3490 hn         1 DKW       0.333500
     36 H13         -3.1800     2.0470    -2.0460 ho         1 DKW       0.525000
     37 H14         -1.9660     3.8410    -0.5860 ho         1 DKW       0.524000
@<TRIPOS>BOND
     1     1     2 ar  
     2     1     6 ar  
     3     2     3 ar  
     4     2    18 1   
     5     3     4 ar  
     6     3    17 1   
     7     4     7 ar  
     8     4    16 1   
     9     5    17 2   
    10     5    18 1   
    11     5    24 1   
    12     6     7 ar  
    13     6    25 1   
    14     8    11 1   
    15     8    18 1   
    16     8    20 1   
    17     8    26 1   
    18     9    10 1   
    19     9    12 1   
    20     9    20 1   
    21     9    27 1   
    22    10    11 1   
    23    10    21 1   
    24    10    28 1   
    25    11    22 1   
    26    11    29 1   
    27    12    19 1   
    28    12    23 2   
    29    13    14 1   
    30    13    19 1   
    31    13    30 1   
    32    13    31 1   
    33    14    15 3   
    34    15    32 1   
    35    16    33 1   
    36    16    34 1   
    37    19    35 1   
    38    21    36 1   
    39    22    37 1   
@<TRIPOS>SUBSTRUCTURE
     1 DKW         1 TEMP              0 ****  ****    0 ROOT
