@<TRIPOS>MOLECULE
DKX
   32    33     1     0     0
SMALL
No Charge or Current Charge


@<TRIPOS>ATOM
      1 C1          -0.1060     0.1630     0.3570 c6         1 DKX       0.335700
      2 N1           1.3230    -0.0590     0.0240 n          1 DKX      -0.300000
      3 C2          -0.6930     1.4780    -0.2620 c6         1 DKX       0.106300
      4 N2           3.5650    -0.2580     0.7200 ns         1 DKX      -0.469500
      5 O2          -0.0230     2.6580     0.2390 oh         1 DKX      -0.692000
      6 C3          -2.2160     1.5380     0.0470 c6         1 DKX       0.117300
      7 F3          -2.7720     2.6390    -0.6440 f          1 DKX      -0.265000
      8 C4          -2.9480     0.2430    -0.4120 c6         1 DKX       0.116300
      9 O4          -4.3440     0.2940    -0.0500 oh         1 DKX      -0.706000
     10 C5          -2.2390    -0.9990     0.2140 c6         1 DKX       0.177300
     11 O5          -0.8280    -0.9880    -0.1320 os         1 DKX      -0.453000
     12 C6          -2.8540    -2.3520    -0.2780 c3         1 DKX       0.172600
     13 O6          -2.1790    -3.5130     0.2510 oh         1 DKX      -0.706000
     14 C7           1.7450    -0.1400    -1.3070 cc         1 DKX       0.012600
     15 C8           3.0840    -0.2820    -1.5850 cd         1 DKX      -0.381200
     16 C9           4.0920    -0.3490    -0.5270 c          1 DKX       0.591200
     17 O9           5.2860    -0.4740    -0.7260 o          1 DKX      -0.525000
     18 C10          2.2590    -0.1150     1.0770 c          1 DKX       0.632000
     19 O10          1.9510    -0.0420     2.2560 o          1 DKX      -0.545000
     20 H1          -0.2210     0.2190     1.4500 h2         1 DKX       0.106700
     21 H2          -0.5770     1.4260    -1.3540 h1         1 DKX       0.051700
     22 HO2         -0.4660     3.4370    -0.1730 ho         1 DKX       0.522000
     23 H3          -2.3760     1.6990     1.1230 h1         1 DKX       0.089700
     24 H4          -2.8530     0.1670    -1.5060 h1         1 DKX       0.053700
     25 HO4         -4.7100     1.1260    -0.4360 ho         1 DKX       0.523000
     26 H5          -2.3370    -0.9620     1.3090 h1         1 DKX       0.075700
     27 H6          -3.9130    -2.3730     0.0120 h1         1 DKX       0.037200
     28 H6A         -2.8170    -2.3620    -1.3760 h1         1 DKX       0.037200
     29 HO6         -2.5940    -4.3030    -0.1680 ho         1 DKX       0.508000
     30 H7           0.9380    -0.1010    -2.0350 h4         1 DKX       0.209000
     31 H8           3.4660    -0.3560    -2.5970 ha         1 DKX       0.223000
     32 HN2          4.2240    -0.2990     1.4800 hn         1 DKX       0.344500
@<TRIPOS>BOND
     1     1     2 1   
     2     1     3 1   
     3     1    11 1   
     4     1    20 1   
     5     2    14 1   
     6     2    18 1   
     7     3     5 1   
     8     3     6 1   
     9     3    21 1   
    10     4    16 1   
    11     4    18 1   
    12     4    32 1   
    13     5    22 1   
    14     6     7 1   
    15     6     8 1   
    16     6    23 1   
    17     8     9 1   
    18     8    10 1   
    19     8    24 1   
    20     9    25 1   
    21    10    11 1   
    22    10    12 1   
    23    10    26 1   
    24    12    13 1   
    25    12    27 1   
    26    12    28 1   
    27    13    29 1   
    28    14    15 2   
    29    14    30 1   
    30    15    16 1   
    31    15    31 1   
    32    16    17 2   
    33    18    19 2   
@<TRIPOS>SUBSTRUCTURE
     1 DKX         1 TEMP              0 ****  ****    0 ROOT
