@<TRIPOS>MOLECULE
DKX
   32    33     1     0     0
SMALL
abcg2


@<TRIPOS>ATOM
      1 C1          -0.1440     0.1300     0.3800 c6         1 DKX       0.335700
      2 N1           1.2610    -0.0410     0.0760 n          1 DKX      -0.300000
      3 C2          -0.6810     1.4390    -0.2020 c6         1 DKX       0.106300
      4 N2           3.4900    -0.1030     0.6920 ns         1 DKX      -0.469500
      5 O2           0.0300     2.4830     0.4000 oh         1 DKX      -0.692000
      6 C3          -2.1700     1.4920     0.0950 c6         1 DKX       0.117300
      7 F3          -2.7150     2.6180    -0.5220 f          1 DKX      -0.265000
      8 C4          -2.8900     0.2530    -0.4130 c6         1 DKX       0.116300
      9 O4          -4.2320     0.2300    -0.0020 oh         1 DKX      -0.706000
     10 C5          -2.2020    -0.9900     0.1590 c6         1 DKX       0.177300
     11 O5          -0.8210    -0.9630    -0.1600 os         1 DKX      -0.453000
     12 C6          -2.7780    -2.2670    -0.4130 c3         1 DKX       0.172600
     13 O6          -2.1590    -3.3620     0.2160 oh         1 DKX      -0.706000
     14 C7           1.6480    -0.2550    -1.2180 cc         1 DKX       0.012600
     15 C8           2.9290    -0.3960    -1.5890 cd         1 DKX      -0.381200
     16 C9           3.9690    -0.3190    -0.5920 c          1 DKX       0.591200
     17 O9           5.1630    -0.4260    -0.7950 o          1 DKX      -0.525000
     18 C10          2.1900     0.0430     1.0970 c          1 DKX       0.632000
     19 O10          1.8930     0.2280     2.2570 o          1 DKX      -0.545000
     20 H1          -0.2380     0.1570     1.4710 h2         1 DKX       0.106700
     21 H2          -0.5440     1.4320    -1.2930 h1         1 DKX       0.051700
     22 HO2         -0.0690     3.2780    -0.1330 ho         1 DKX       0.522000
     23 H3          -2.3320     1.6030     1.1730 h1         1 DKX       0.089700
     24 H4          -2.8030     0.2210    -1.5090 h1         1 DKX       0.053700
     25 HO4         -4.7210     0.8920    -0.4990 ho         1 DKX       0.523000
     26 H5          -2.3290    -0.9960     1.2540 h1         1 DKX       0.075700
     27 H6          -3.8590    -2.2590    -0.2460 h1         1 DKX       0.037200
     28 H6A         -2.6180    -2.2730    -1.5000 h1         1 DKX       0.037200
     29 HO6         -2.6210    -4.1600    -0.0560 ho         1 DKX       0.508000
     30 H7           0.8510    -0.3170    -1.9450 h4         1 DKX       0.209000
     31 H8           3.1880    -0.5670    -2.6220 ha         1 DKX       0.223000
     32 HN2          4.1790    -0.0420     1.4310 hn         1 DKX       0.344500
@<TRIPOS>BOND
     1     1     2 1   
     2     1     3 1   
     3     1    11 1   
     4     1    20 1   
     5     2    14 1   
     6     2    18 1   
     7     3     5 1   
     8     3     6 1   
     9     3    21 1   
    10     4    16 1   
    11     4    18 1   
    12     4    32 1   
    13     5    22 1   
    14     6     7 1   
    15     6     8 1   
    16     6    23 1   
    17     8     9 1   
    18     8    10 1   
    19     8    24 1   
    20     9    25 1   
    21    10    11 1   
    22    10    12 1   
    23    10    26 1   
    24    12    13 1   
    25    12    27 1   
    26    12    28 1   
    27    13    29 1   
    28    14    15 2   
    29    14    30 1   
    30    15    16 1   
    31    15    31 1   
    32    16    17 2   
    33    18    19 2   
@<TRIPOS>SUBSTRUCTURE
     1 DKX         1 TEMP              0 ****  ****    0 ROOT
