@<TRIPOS>MOLECULE
DKY
   45    47     1     0     0
SMALL
bcc


@<TRIPOS>ATOM
      1 C1          -2.4070     0.2260     0.5660 c6         1 DKY       0.319500
      2 N1          -0.9620     0.1410     0.4820 n          1 DKY      -0.364000
      3 C2          -2.9860     1.4580    -0.1340 c6         1 DKY       0.083100
      4 N2           1.0440    -0.0370    -0.7620 nc         1 DKY      -0.690100
      5 O2          -2.3980     2.5810     0.4630 oh         1 DKY      -0.589800
      6 C3          -4.4910     1.4080     0.0710 c6         1 DKY       0.100600
      7 F3          -5.0790     2.4510    -0.6460 f          1 DKY      -0.246300
      8 C4          -5.0810     0.0870    -0.3970 c6         1 DKY       0.091100
      9 O4          -6.4460    -0.0100    -0.0810 oh         1 DKY      -0.589800
     10 C5          -4.3490    -1.0570     0.3130 c6         1 DKY       0.154100
     11 O5          -2.9580    -0.9530     0.0740 os         1 DKY      -0.376600
     12 C6          -4.8010    -2.4130    -0.1830 c3         1 DKY       0.149400
     13 O6          -4.1450    -3.4060     0.5660 oh         1 DKY      -0.588800
     14 C7          -0.2460     0.1900     1.6290 cc         1 DKY       0.086600
     15 C8           1.1010     0.1260     1.6250 cd         1 DKY      -0.433600
     16 C9           1.7180     0.0050     0.3490 cd         1 DKY       0.629200
     17 C10         -0.3130     0.0260    -0.7600 c          1 DKY       0.857900
     18 O10         -0.9620    -0.0170    -1.7890 o          1 DKY      -0.591500
     19 C11          3.9470    -0.2500    -0.7200 c          1 DKY       0.687700
     20 O11          3.5800    -0.5110    -1.8410 o          1 DKY      -0.497100
     21 C12          5.3930    -0.1410    -0.3700 ca         1 DKY      -0.160600
     22 C13          6.3060    -0.8300    -1.1690 ca         1 DKY      -0.088500
     23 C14          7.6630    -0.7570    -0.9020 ca         1 DKY      -0.136000
     24 C15          8.1240     0.0200     0.1540 ca         1 DKY      -0.103000
     25 C16          7.2230     0.7230     0.9410 ca         1 DKY      -0.136000
     26 C17          5.8620     0.6420     0.6840 ca         1 DKY      -0.088500
     27 H1          -2.6320     0.3290     1.6380 h2         1 DKY       0.044700
     28 H2          -2.7780     1.4080    -1.2070 h1         1 DKY       0.096700
     29 HO2         -2.5090     3.3370    -0.1210 ho         1 DKY       0.426000
     30 H3          -4.7340     1.5680     1.1280 h1         1 DKY       0.075700
     31 HN3          3.5140     0.0050     1.2570 hn         1 DKY       0.324500
     32 H4          -4.9120    -0.0140    -1.4800 h1         1 DKY       0.067700
     33 HO4         -6.9420     0.5740    -0.6630 ho         1 DKY       0.423000
     34 H5          -4.5480    -0.9850     1.3950 h1         1 DKY       0.060700
     35 H6          -5.8880    -2.4720    -0.0740 h1         1 DKY       0.040700
     36 H6A         -4.5770    -2.4920    -1.2560 h1         1 DKY       0.040700
     37 HO6         -4.4970    -4.2600     0.3000 ho         1 DKY       0.408000
     38 H7          -0.8070     0.2790     2.5480 h4         1 DKY       0.154000
     39 H8           1.6640     0.1640     2.5450 ha         1 DKY       0.154000
     40 H13          5.9520    -1.4310    -1.9960 ha         1 DKY       0.142500
     41 H14          8.3610    -1.3060    -1.5180 ha         1 DKY       0.137000
     42 H15          9.1840     0.0790     0.3610 ha         1 DKY       0.135000
     43 H16          7.5780     1.3400     1.7560 ha         1 DKY       0.137000
     44 H17          5.1850     1.2230     1.2970 ha         1 DKY       0.142500
     45 N3           3.0900    -0.0540     0.3440 ns         1 DKY      -0.489400
@<TRIPOS>BOND
     1     1     2 1   
     2     1     3 1   
     3     1    11 1   
     4     1    27 1   
     5     2    14 1   
     6     2    17 1   
     7     3     5 1   
     8     3     6 1   
     9     3    28 1   
    10     4    16 2   
    11     4    17 1   
    12     5    29 1   
    13     6     7 1   
    14     6     8 1   
    15     6    30 1   
    16     8     9 1   
    17     8    10 1   
    18     8    32 1   
    19     9    33 1   
    20    10    11 1   
    21    10    12 1   
    22    10    34 1   
    23    12    13 1   
    24    12    35 1   
    25    12    36 1   
    26    13    37 1   
    27    14    15 2   
    28    14    38 1   
    29    15    16 1   
    30    15    39 1   
    31    16    45 1   
    32    17    18 2   
    33    19    20 2   
    34    19    21 1   
    35    19    45 1   
    36    21    22 ar  
    37    21    26 ar  
    38    22    23 ar  
    39    22    40 1   
    40    23    24 ar  
    41    23    41 1   
    42    24    25 ar  
    43    24    42 1   
    44    25    26 ar  
    45    25    43 1   
    46    26    44 1   
    47    31    45 1   
@<TRIPOS>SUBSTRUCTURE
     1 DKY         1 TEMP              0 ****  ****    0 ROOT
