@<TRIPOS>MOLECULE
DKY
   45    47     1     0     0
SMALL
No Charge or Current Charge


@<TRIPOS>ATOM
      1 C1          -2.4430     0.3140     0.6360 c6         1 DKY       0.342700
      2 N1          -0.9640     0.2960     0.5180 n          1 DKY      -0.297000
      3 C2          -3.1010     1.5180    -0.1180 c6         1 DKY       0.106300
      4 N2           1.0240    -0.1650    -0.7250 nc         1 DKY      -0.690100
      5 O2          -2.6390     2.7960     0.3890 oh         1 DKY      -0.712000
      6 C3          -4.6460     1.4030     0.0090 c6         1 DKY       0.119300
      7 F3          -5.2390     2.3870    -0.8150 f          1 DKY      -0.265000
      8 C4          -5.1630     0.0050    -0.4370 c6         1 DKY       0.114300
      9 O4          -6.5910    -0.0930    -0.2460 oh         1 DKY      -0.712000
     10 C5          -4.4010    -1.1010     0.3610 c6         1 DKY       0.177300
     11 O5          -2.9720    -0.9460     0.1700 os         1 DKY      -0.423000
     12 C6          -4.8010    -2.5470    -0.0840 c3         1 DKY       0.172600
     13 O6          -4.0680    -3.5820     0.6060 oh         1 DKY      -0.711000
     14 C7          -0.1830     0.6370     1.6150 cc         1 DKY       0.036600
     15 C8           1.1880     0.5590     1.5310 cd         1 DKY      -0.483600
     16 C9           1.7760     0.1340     0.3060 cd         1 DKY       0.629200
     17 C10         -0.3460    -0.0980    -0.6860 c          1 DKY       0.715400
     18 O10         -0.9760    -0.3540    -1.7010 o          1 DKY      -0.516000
     19 C11          3.9990    -0.2880    -0.7090 c          1 DKY       0.620700
     20 O11          3.6190    -0.6350    -1.8190 o          1 DKY      -0.497100
     21 C12          5.4800    -0.2370    -0.3720 ca         1 DKY      -0.160600
     22 C13          6.4270    -0.5980    -1.3610 ca         1 DKY      -0.070500
     23 C14          7.8050    -0.5650    -1.0880 ca         1 DKY      -0.118000
     24 C15          8.2640    -0.1690     0.1760 ca         1 DKY      -0.085000
     25 C16          7.3420     0.1930     1.1690 ca         1 DKY      -0.118000
     26 C17          5.9620     0.1610     0.9030 ca         1 DKY      -0.070500
     27 H1          -2.6870     0.4090     1.7040 h2         1 DKY       0.044700
     28 H2          -2.8440     1.4220    -1.1840 h1         1 DKY       0.096700
     29 HO2         -3.1400     3.4960    -0.0960 ho         1 DKY       0.525000
     30 H3          -4.9540     1.6040     1.0460 h1         1 DKY       0.075700
     31 HN3          3.5960     0.3380     1.1600 hn         1 DKY       0.324500
     32 H4          -4.9210    -0.1250    -1.5030 h1         1 DKY       0.067700
     33 HO4         -6.9960     0.6760    -0.7140 ho         1 DKY       0.522000
     34 H5          -4.6280    -1.0000     1.4330 h1         1 DKY       0.060700
     35 H6          -5.8780    -2.6740     0.0890 h1         1 DKY       0.040700
     36 H6A         -4.6360    -2.6260    -1.1680 h1         1 DKY       0.040700
     37 HO6         -4.3440    -4.4420     0.2120 ho         1 DKY       0.507000
     38 H7          -0.7550     0.9480     2.4870 h4         1 DKY       0.204000
     39 H8           1.8050     0.8170     2.3850 ha         1 DKY       0.204000
     40 H13          6.0980    -0.9090    -2.3510 ha         1 DKY       0.124500
     41 H14          8.5180    -0.8460    -1.8610 ha         1 DKY       0.119000
     42 H15          9.3320    -0.1440     0.3860 ha         1 DKY       0.117000
     43 H16          7.6970     0.4990     2.1510 ha         1 DKY       0.119000
     44 H17          5.2860     0.4500     1.7040 ha         1 DKY       0.124500
     45 N3           3.1400     0.0780     0.3040 ns         1 DKY      -0.422400
@<TRIPOS>BOND
     1     1     2 1   
     2     1     3 1   
     3     1    11 1   
     4     1    27 1   
     5     2    14 1   
     6     2    17 1   
     7     3     5 1   
     8     3     6 1   
     9     3    28 1   
    10     4    16 2   
    11     4    17 1   
    12     5    29 1   
    13     6     7 1   
    14     6     8 1   
    15     6    30 1   
    16     8     9 1   
    17     8    10 1   
    18     8    32 1   
    19     9    33 1   
    20    10    11 1   
    21    10    12 1   
    22    10    34 1   
    23    12    13 1   
    24    12    35 1   
    25    12    36 1   
    26    13    37 1   
    27    14    15 2   
    28    14    38 1   
    29    15    16 1   
    30    15    39 1   
    31    16    45 1   
    32    17    18 2   
    33    19    20 2   
    34    19    21 1   
    35    19    45 1   
    36    21    22 ar  
    37    21    26 ar  
    38    22    23 ar  
    39    22    40 1   
    40    23    24 ar  
    41    23    41 1   
    42    24    25 ar  
    43    24    42 1   
    44    25    26 ar  
    45    25    43 1   
    46    26    44 1   
    47    31    45 1   
@<TRIPOS>SUBSTRUCTURE
     1 DKY         1 TEMP              0 ****  ****    0 ROOT
