@<TRIPOS>MOLECULE
DKZ
   33    34     1     0     0
SMALL
abcg2


@<TRIPOS>ATOM
      1 C1          -0.0890     0.1660     0.5060 c6         1 DKZ       0.345700
      2 N1           1.3350     0.0220     0.2990 n          1 DKZ      -0.303000
      3 C2          -0.6670     1.4580    -0.0760 c6         1 DKZ       0.106300
      4 N2           3.2200    -0.1750    -1.1140 nc         1 DKZ      -0.775100
      5 O2           0.0110     2.5240     0.5330 oh         1 DKZ      -0.712000
      6 C3          -2.1510     1.4620     0.2450 c6         1 DKZ       0.119300
      7 F3          -2.7440     2.5660    -0.3710 f          1 DKZ      -0.267000
      8 C4          -2.8410     0.1980    -0.2410 c6         1 DKZ       0.114300
      9 O4          -4.1780     0.1410     0.1850 oh         1 DKZ      -0.712000
     10 C5          -2.1090    -1.0180     0.3370 c6         1 DKZ       0.178300
     11 O5          -0.7380    -0.9590    -0.0030 os         1 DKZ      -0.425000
     12 C6          -2.6600    -2.3180    -0.2060 c3         1 DKZ       0.171600
     13 O6          -2.0090    -3.3860     0.4370 oh         1 DKZ      -0.711000
     14 C7           2.1430    -0.0470     1.3870 cc         1 DKZ       0.038600
     15 C8           3.4780    -0.1760     1.2760 cd         1 DKZ      -0.483600
     16 C9           3.9990    -0.2420    -0.0530 cd         1 DKZ       0.788500
     17 C10          1.8830    -0.0420    -0.9980 c          1 DKZ       0.725400
     18 O10          1.1440     0.0210    -1.9680 o          1 DKZ      -0.543000
     19 H1          -0.2230     0.2160     1.5970 h2         1 DKZ       0.043700
     20 H2          -0.5400     1.4610    -1.1620 h1         1 DKZ       0.097700
     21 HO2         -0.0880     3.3090    -0.0140 ho         1 DKZ       0.524000
     22 H3          -2.3030     1.5760     1.3240 h1         1 DKZ       0.075700
     23 HN3          5.9450    -0.4660     0.5350 hn         1 DKZ       0.501000
     24 HN3A         5.6850    -0.4520    -1.1690 hn         1 DKZ       0.501000
     25 H4          -2.7660     0.1560    -1.3390 h1         1 DKZ       0.066700
     26 HO4         -4.6870     0.7970    -0.3010 ho         1 DKZ       0.521000
     27 H5          -2.2250    -1.0090     1.4340 h1         1 DKZ       0.059700
     28 H6          -3.7400    -2.3350    -0.0310 h1         1 DKZ       0.040200
     29 H6A         -2.5090    -2.3400    -1.2950 h1         1 DKZ       0.040200
     30 HO6         -2.4160    -4.2050     0.1400 ho         1 DKZ       0.506000
     31 H7           1.6570     0.0030     2.3520 h4         1 DKZ       0.201000
     32 H8           4.1100    -0.2310     2.1490 ha         1 DKZ       0.203000
     33 N3           5.3110    -0.3690    -0.2390 nv         1 DKZ      -1.034200
@<TRIPOS>BOND
     1     1     2 1   
     2     1     3 1   
     3     1    11 1   
     4     1    19 1   
     5     2    14 1   
     6     2    17 1   
     7     3     5 1   
     8     3     6 1   
     9     3    20 1   
    10     4    16 2   
    11     4    17 1   
    12     5    21 1   
    13     6     7 1   
    14     6     8 1   
    15     6    22 1   
    16     8     9 1   
    17     8    10 1   
    18     8    25 1   
    19     9    26 1   
    20    10    11 1   
    21    10    12 1   
    22    10    27 1   
    23    12    13 1   
    24    12    28 1   
    25    12    29 1   
    26    13    30 1   
    27    14    15 2   
    28    14    31 1   
    29    15    16 1   
    30    15    32 1   
    31    16    33 1   
    32    17    18 2   
    33    23    33 1   
    34    24    33 1   
@<TRIPOS>SUBSTRUCTURE
     1 DKZ         1 TEMP              0 ****  ****    0 ROOT
