@<TRIPOS>MOLECULE
DKZ
   33    34     1     0     0
SMALL
No Charge or Current Charge


@<TRIPOS>ATOM
      1 C1          -0.0550     0.1820     0.6030 c6         1 DKZ       0.345700
      2 N1           1.4070     0.0710     0.3730 n          1 DKZ      -0.303000
      3 C2          -0.6630     1.5090     0.0370 c6         1 DKZ       0.106300
      4 N2           3.2620    -0.3810    -1.0720 nc         1 DKZ      -0.775100
      5 O2          -0.0680     2.6850     0.6430 oh         1 DKZ      -0.712000
      6 C3          -2.2010     1.4920     0.2680 c6         1 DKZ       0.119300
      7 F3          -2.7670     2.6040    -0.3970 f          1 DKZ      -0.267000
      8 C4          -2.8570     0.1940    -0.2870 c6         1 DKZ       0.114300
      9 O4          -4.2720     0.1790    -0.0010 oh         1 DKZ      -0.712000
     10 C5          -2.1340    -1.0470     0.3260 c6         1 DKZ       0.178300
     11 O5          -0.7120    -0.9750     0.0450 os         1 DKZ      -0.425000
     12 C6          -2.6780    -2.4000    -0.2420 c3         1 DKZ       0.171600
     13 O6          -1.9860    -3.5570     0.2740 oh         1 DKZ      -0.711000
     14 C7           2.2840     0.2190     1.4450 cc         1 DKZ       0.038600
     15 C8           3.6330     0.0530     1.2430 cd         1 DKZ      -0.483600
     16 C9           4.0530    -0.2530    -0.0640 cd         1 DKZ       0.788500
     17 C10          1.9090    -0.2200    -0.9160 c          1 DKZ       0.725400
     18 O10          1.1960    -0.3070    -1.9020 o          1 DKZ      -0.543000
     19 H1          -0.2190     0.1720     1.6910 h2         1 DKZ       0.043700
     20 H2          -0.4880     1.5170    -1.0490 h1         1 DKZ       0.097700
     21 HO2         -0.5440     3.4690     0.2780 ho         1 DKZ       0.524000
     22 H3          -2.4200     1.5940     1.3410 h1         1 DKZ       0.075700
     23 HN3          5.8950    -0.7450     0.4520 hn         1 DKZ       0.501000
     24 HN3A         5.5020    -0.8990    -1.2080 hn         1 DKZ       0.501000
     25 H4          -2.6980     0.1700    -1.3770 h1         1 DKZ       0.066700
     26 HO4         -4.6430     1.0250    -0.3490 ho         1 DKZ       0.521000
     27 H5          -2.2790    -1.0520     1.4160 h1         1 DKZ       0.059700
     28 H6          -3.7470    -2.4680    -0.0020 h1         1 DKZ       0.040200
     29 H6A         -2.5930    -2.3670    -1.3370 h1         1 DKZ       0.040200
     30 HO6         -2.3570    -4.3450    -0.1890 ho         1 DKZ       0.506000
     31 H7           1.8000     0.4620     2.3880 h4         1 DKZ       0.201000
     32 H8           4.3470     0.1580     2.0510 ha         1 DKZ       0.203000
     33 N3           5.3310    -0.4350    -0.3270 nv         1 DKZ      -1.034200
@<TRIPOS>BOND
     1     1     2 1   
     2     1     3 1   
     3     1    11 1   
     4     1    19 1   
     5     2    14 1   
     6     2    17 1   
     7     3     5 1   
     8     3     6 1   
     9     3    20 1   
    10     4    16 2   
    11     4    17 1   
    12     5    21 1   
    13     6     7 1   
    14     6     8 1   
    15     6    22 1   
    16     8     9 1   
    17     8    10 1   
    18     8    25 1   
    19     9    26 1   
    20    10    11 1   
    21    10    12 1   
    22    10    27 1   
    23    12    13 1   
    24    12    28 1   
    25    12    29 1   
    26    13    30 1   
    27    14    15 2   
    28    14    31 1   
    29    15    16 1   
    30    15    32 1   
    31    16    33 1   
    32    17    18 2   
    33    23    33 1   
    34    24    33 1   
@<TRIPOS>SUBSTRUCTURE
     1 DKZ         1 TEMP              0 ****  ****    0 ROOT
