@<TRIPOS>MOLECULE
DL0
   49    53     1     0     0
SMALL
No Charge or Current Charge


@<TRIPOS>ATOM
      1 C12          0.0430     1.1420    -0.6960 c3         1 DL0      -0.009200
      2 C13          0.7960     1.1670     0.6510 c3         1 DL0      -0.092700
      3 C14          2.2810     0.9550     0.5060 cc         1 DL0       0.430800
      4 C20          6.6030    -0.3990    -0.1380 ca         1 DL0      -0.098000
      5 C10         -2.2670     0.2170    -0.1420 c          1 DL0       0.594900
      6 C9          -1.4440     1.3880    -0.5410 cc         1 DL0      -0.283400
      7 C8          -2.0250     2.6250    -0.7600 cd         1 DL0       0.041100
      8 O7          -3.3770     2.7830    -0.6040 os         1 DL0      -0.200200
      9 C4          -4.2240     1.7680    -0.2350 ca         1 DL0       0.145100
     10 C5          -3.7310     0.4780     0.0060 ca         1 DL0      -0.222600
     11 C6          -4.6250    -0.5490     0.3840 ca         1 DL0      -0.019000
     12 C3          -5.5960     2.0410    -0.1040 ca         1 DL0      -0.132000
     13 C2          -6.4860     1.0190     0.2730 ca         1 DL0      -0.050000
     14 C1          -5.9970    -0.2760     0.5160 ca         1 DL0       0.079000
     15 Cl          -7.1070    -1.5570     0.9870 cl         1 DL0      -0.188000
     16 N15          2.9080    -0.2660     0.2450 na         1 DL0      -0.091400
     17 C16          4.2450    -0.0580     0.1470 ca         1 DL0      -0.075200
     18 C19          5.3020    -0.9420    -0.1020 ca         1 DL0      -0.105000
     19 C21          6.8110     0.9890     0.0740 ca         1 DL0      -0.100300
     20 C29          8.2190     1.5620     0.0290 c3         1 DL0      -0.041800
     21 C22          5.7070     1.8400     0.3220 ca         1 DL0      -0.053000
     22 C17          4.4210     1.2820     0.3540 ca         1 DL0       0.072400
     23 N18          3.2060     1.9390     0.5800 nd         1 DL0      -0.581100
     24 C23          2.2430    -1.4760     0.0650 ca         1 DL0      -0.004200
     25 C24          2.1680    -2.0540    -1.2170 ca         1 DL0      -0.100500
     26 C25          1.4940    -3.2730    -1.4040 ca         1 DL0      -0.099000
     27 C26          0.8950    -3.9200    -0.3100 ca         1 DL0      -0.098000
     28 C27          0.9730    -3.3500     0.9720 ca         1 DL0      -0.099000
     29 C28          1.6470    -2.1310     1.1600 ca         1 DL0      -0.100500
     30 H1           0.4770     1.9070    -1.3540 hc         1 DL0       0.059700
     31 H2           0.2210     0.1840    -1.2010 hc         1 DL0       0.059700
     32 H3           0.6160     2.1310     1.1410 hc         1 DL0       0.073200
     33 H4           0.3810     0.4040     1.3180 hc         1 DL0       0.073200
     34 H5           7.4500    -1.0530    -0.3310 ha         1 DL0       0.110000
     35 H6          -1.5100     3.5360    -1.0550 h4         1 DL0       0.235000
     36 H7          -4.2630    -1.5570     0.5760 ha         1 DL0       0.153000
     37 H8          -5.9680     3.0440    -0.2930 ha         1 DL0       0.140000
     38 H9          -7.5480     1.2280     0.3750 ha         1 DL0       0.137000
     39 H10          5.1290    -2.0040    -0.2600 ha         1 DL0       0.123000
     40 H11          8.4950     1.8390    -0.9960 hc         1 DL0       0.039700
     41 H12          8.3080     2.4580     0.6540 hc         1 DL0       0.039700
     42 H13          8.9580     0.8360     0.3900 hc         1 DL0       0.039700
     43 H14          5.8460     2.9060     0.4830 ha         1 DL0       0.125000
     44 H15          2.6300    -1.5560    -2.0670 ha         1 DL0       0.126000
     45 H16          1.4350    -3.7150    -2.3960 ha         1 DL0       0.118500
     46 H17          0.3720    -4.8630    -0.4550 ha         1 DL0       0.117000
     47 H18          0.5110    -3.8520     1.8200 ha         1 DL0       0.118500
     48 H19          1.7080    -1.6970     2.1560 ha         1 DL0       0.126000
     49 O11         -1.8000    -0.8970     0.0610 o          1 DL0      -0.534100
@<TRIPOS>BOND
     1     1     2 1   
     2     1     6 1   
     3     1    30 1   
     4     1    31 1   
     5     2     3 1   
     6     2    32 1   
     7     2    33 1   
     8     3    16 1   
     9     3    23 2   
    10     4    18 ar  
    11     4    19 ar  
    12     4    34 1   
    13     5     6 1   
    14     5    10 1   
    15     5    49 2   
    16     6     7 2   
    17     7     8 1   
    18     7    35 1   
    19     8     9 1   
    20     9    10 ar  
    21     9    12 ar  
    22    10    11 ar  
    23    11    14 ar  
    24    11    36 1   
    25    12    13 ar  
    26    12    37 1   
    27    13    14 ar  
    28    13    38 1   
    29    14    15 1   
    30    16    17 1   
    31    16    24 1   
    32    17    18 ar  
    33    17    22 ar  
    34    18    39 1   
    35    19    20 1   
    36    19    21 ar  
    37    20    40 1   
    38    20    41 1   
    39    20    42 1   
    40    21    22 ar  
    41    21    43 1   
    42    22    23 1   
    43    24    25 ar  
    44    24    29 ar  
    45    25    26 ar  
    46    25    44 1   
    47    26    27 ar  
    48    26    45 1   
    49    27    28 ar  
    50    27    46 1   
    51    28    29 ar  
    52    28    47 1   
    53    29    48 1   
@<TRIPOS>SUBSTRUCTURE
     1 DL0         1 TEMP              0 ****  ****    0 ROOT
