@<TRIPOS>MOLECULE
DL0
   49    53     1     0     0
SMALL
bcc


@<TRIPOS>ATOM
      1 C12          0.0550     1.0860    -0.6390 c3         1 DL0      -0.009200
      2 C13          0.7540     0.9660     0.7260 c3         1 DL0      -0.092700
      3 C14          2.2280     0.8360     0.5740 cc         1 DL0       0.430800
      4 C20          6.5100    -0.2570    -0.2280 ca         1 DL0      -0.116000
      5 C10         -2.2760     0.2080    -0.0710 c          1 DL0       0.594900
      6 C9          -1.4190     1.3030    -0.5010 cc         1 DL0      -0.283400
      7 C8          -1.9670     2.5010    -0.7720 cd         1 DL0       0.091100
      8 O7          -3.2670     2.7940    -0.6690 os         1 DL0      -0.200200
      9 C4          -4.1320     1.8400    -0.2730 ca         1 DL0       0.145100
     10 C5          -3.7020     0.5530     0.0340 ca         1 DL0      -0.222600
     11 C6          -4.6460    -0.3970     0.4380 ca         1 DL0      -0.037000
     12 C3          -5.4760     2.1950    -0.1860 ca         1 DL0      -0.150000
     13 C2          -6.3960     1.2510     0.2120 ca         1 DL0      -0.068000
     14 C1          -5.9710    -0.0440     0.5210 ca         1 DL0      -0.012600
     15 CL          -7.1440    -1.2150     1.0180 cl         1 DL0      -0.096400
     16 N15          2.8340    -0.3390     0.2140 na         1 DL0      -0.091400
     17 C16          4.1800    -0.0740     0.0950 ca         1 DL0      -0.075200
     18 C19          5.2720    -0.8730    -0.2190 ca         1 DL0      -0.123000
     19 C21          6.6760     1.1110     0.0700 ca         1 DL0      -0.100300
     20 C29          8.0520     1.7160     0.0270 c3         1 DL0      -0.041800
     21 C22          5.5700     1.8830     0.3880 ca         1 DL0      -0.071000
     22 C17          4.3100     1.2850     0.4010 ca         1 DL0       0.072400
     23 N18          3.0770     1.8200     0.6910 nd         1 DL0      -0.581100
     24 C23          2.2240    -1.6060     0.0380 ca         1 DL0      -0.004200
     25 C24          2.1390    -2.1540    -1.2360 ca         1 DL0      -0.118500
     26 C25          1.5600    -3.4030    -1.4030 ca         1 DL0      -0.117000
     27 C26          1.0620    -4.0960    -0.3070 ca         1 DL0      -0.116000
     28 C27          1.1510    -3.5410     0.9620 ca         1 DL0      -0.117000
     29 C28          1.7420    -2.2990     1.1400 ca         1 DL0      -0.118500
     30 H1           0.4980     1.9150    -1.1950 hc         1 DL0       0.059700
     31 H2           0.2280     0.1800    -1.2240 hc         1 DL0       0.059700
     32 H3           0.5620     1.8650     1.3110 hc         1 DL0       0.073200
     33 H4           0.3420     0.1220     1.2780 hc         1 DL0       0.073200
     34 H5           7.3860    -0.8470    -0.4700 ha         1 DL0       0.128000
     35 H6          -1.3940     3.3550    -1.1080 h4         1 DL0       0.185000
     36 H7          -4.3190    -1.4010     0.6760 ha         1 DL0       0.171000
     37 H8          -5.7910     3.2010    -0.4320 ha         1 DL0       0.158000
     38 H9          -7.4420     1.5150     0.2840 ha         1 DL0       0.155000
     39 H10          5.1670    -1.9260    -0.4460 ha         1 DL0       0.141000
     40 H11          8.4540     1.7130    -0.9880 hc         1 DL0       0.039700
     41 H12          8.0420     2.7480     0.3750 hc         1 DL0       0.039700
     42 H13          8.7530     1.1600     0.6500 hc         1 DL0       0.039700
     43 H14          5.6790     2.9360     0.6230 ha         1 DL0       0.143000
     44 H15          2.5200    -1.6050    -2.0880 ha         1 DL0       0.144000
     45 H16          1.4910    -3.8320    -2.3940 ha         1 DL0       0.136500
     46 H17          0.6060    -5.0670    -0.4440 ha         1 DL0       0.135000
     47 H18          0.7710    -4.0800     1.8200 ha         1 DL0       0.136500
     48 H19          1.8310    -1.8680     2.1290 ha         1 DL0       0.144000
     49 O11         -1.8530    -0.9100     0.1820 o          1 DL0      -0.534100
@<TRIPOS>BOND
     1     1     2 1   
     2     1     6 1   
     3     1    30 1   
     4     1    31 1   
     5     2     3 1   
     6     2    32 1   
     7     2    33 1   
     8     3    16 1   
     9     3    23 2   
    10     4    18 ar  
    11     4    19 ar  
    12     4    34 1   
    13     5     6 1   
    14     5    10 1   
    15     5    49 2   
    16     6     7 2   
    17     7     8 1   
    18     7    35 1   
    19     8     9 1   
    20     9    10 ar  
    21     9    12 ar  
    22    10    11 ar  
    23    11    14 ar  
    24    11    36 1   
    25    12    13 ar  
    26    12    37 1   
    27    13    14 ar  
    28    13    38 1   
    29    14    15 1   
    30    16    17 1   
    31    16    24 1   
    32    17    18 ar  
    33    17    22 ar  
    34    18    39 1   
    35    19    20 1   
    36    19    21 ar  
    37    20    40 1   
    38    20    41 1   
    39    20    42 1   
    40    21    22 ar  
    41    21    43 1   
    42    22    23 1   
    43    24    25 ar  
    44    24    29 ar  
    45    25    26 ar  
    46    25    44 1   
    47    26    27 ar  
    48    26    45 1   
    49    27    28 ar  
    50    27    46 1   
    51    28    29 ar  
    52    28    47 1   
    53    29    48 1   
@<TRIPOS>SUBSTRUCTURE
     1 DL0         1 TEMP              0 ****  ****    0 ROOT
