@<TRIPOS>MOLECULE
DL1
   49    52     1     0     0
SMALL
bcc


@<TRIPOS>ATOM
      1 CAM         -5.3620     1.2030    -0.6570 c6         1 DL1       0.157300
      2 CAK         -6.7360     1.6960    -0.2480 c6         1 DL1       0.124900
      3 OAS         -7.6600     0.6360    -0.1500 os         1 DL1      -0.398600
      4 CAL         -7.2160    -0.3150     0.7880 c6         1 DL1       0.124900
      5 CAN         -5.8590    -0.8870     0.4200 c6         1 DL1       0.157300
      6 NBB         -4.8920     0.1830     0.2740 nh         1 DL1      -0.643000
      7 CAV         -3.5450    -0.1710     0.2010 ca         1 DL1       0.163600
      8 CAJ         -2.5660     0.8360     0.1760 ca         1 DL1      -0.231000
      9 CBA         -1.2210     0.5250     0.1280 ca         1 DL1       0.123100
     10 OAT         -0.2350     1.4430     0.1030 os         1 DL1      -0.334900
     11 CAA         -0.5710     2.8160     0.1290 c3         1 DL1       0.130700
     12 CAH         -3.1130    -1.4960     0.1830 ca         1 DL1      -0.197000
     13 CAI         -1.7580    -1.8100     0.1490 ca         1 DL1      -0.096000
     14 CAY         -0.7910    -0.8190     0.1130 ca         1 DL1       0.016600
     15 NAQ          0.5880    -1.0320     0.0600 ns         1 DL1      -0.437100
     16 CAU          1.2780    -2.1830     0.0670 c          1 DL1       0.576600
     17 OAB          0.8060    -3.3080     0.1290 o          1 DL1      -0.596100
     18 CAW          2.7650    -1.9670    -0.0110 ca         1 DL1       0.367800
     19 NAP          3.1820    -0.7130    -0.0910 nb         1 DL1      -0.673000
     20 CAE          3.6310    -3.0500     0.0020 ca         1 DL1      -0.187300
     21 CAC          4.9900    -2.7870    -0.0730 ca         1 DL1      -0.093000
     22 CAF          5.4280    -1.4770    -0.1550 ca         1 DL1      -0.230300
     23 CAX          4.4810    -0.4530    -0.1620 ca         1 DL1       0.499800
     24 CAZ          4.8340     0.9600    -0.2490 cc         1 DL1      -0.169800
     25 NAR          6.0970     1.4300    -0.3250 na         1 DL1       0.003400
     26 NAO          6.1580     2.7500    -0.3960 nc         1 DL1      -0.508800
     27 CAD          4.9000     3.1560    -0.3670 cd         1 DL1       0.292200
     28 CAG          4.0160     2.0730    -0.2740 cd         1 DL1      -0.256300
     29 H1          -5.4000     0.8060    -1.6820 h1         1 DL1       0.047450
     30 H2          -4.6870     2.0570    -0.6660 h1         1 DL1       0.047450
     31 H3          -6.6630     2.2300     0.7100 h1         1 DL1       0.052700
     32 H4          -7.1120     2.3950    -0.9960 h1         1 DL1       0.052700
     33 H5          -7.1570     0.1330     1.7900 h1         1 DL1       0.052700
     34 H6          -7.9540    -1.1170     0.8200 h1         1 DL1       0.052700
     35 H7          -5.5520    -1.5560     1.2260 h1         1 DL1       0.047450
     36 H8          -5.9430    -1.4920    -0.4950 h1         1 DL1       0.047450
     37 H9          -2.8720     1.8720     0.2250 ha         1 DL1       0.138000
     38 H10          0.3680     3.3640     0.1090 h1         1 DL1       0.041700
     39 H11         -1.1660     3.1040    -0.7410 h1         1 DL1       0.041700
     40 H12         -1.1150     3.0830     1.0380 h1         1 DL1       0.041700
     41 H13         -3.8180    -2.3140     0.1810 ha         1 DL1       0.136000
     42 H14         -1.4710    -2.8490     0.1340 ha         1 DL1       0.165000
     43 H15          1.1710    -0.2050     0.0030 hn         1 DL1       0.363500
     44 H16          3.2580    -4.0620     0.0720 ha         1 DL1       0.171000
     45 H17          5.7060    -3.5970    -0.0670 ha         1 DL1       0.145000
     46 H18          6.4880    -1.2700    -0.2130 ha         1 DL1       0.137000
     47 H19          6.9550     0.9020    -0.3300 hn         1 DL1       0.319700
     48 H20          4.6650     4.2080    -0.4110 h4         1 DL1       0.038100
     49 H21          2.9410     2.0900    -0.2330 ha         1 DL1       0.175000
@<TRIPOS>BOND
     1     1     2 1   
     2     1     6 1   
     3     1    29 1   
     4     1    30 1   
     5     2     3 1   
     6     2    31 1   
     7     2    32 1   
     8     3     4 1   
     9     4     5 1   
    10     4    33 1   
    11     4    34 1   
    12     5     6 1   
    13     5    35 1   
    14     5    36 1   
    15     6     7 1   
    16     7     8 ar  
    17     7    12 ar  
    18     8     9 ar  
    19     8    37 1   
    20     9    10 1   
    21     9    14 ar  
    22    10    11 1   
    23    11    38 1   
    24    11    39 1   
    25    11    40 1   
    26    12    13 ar  
    27    12    41 1   
    28    13    14 ar  
    29    13    42 1   
    30    14    15 1   
    31    15    16 1   
    32    15    43 1   
    33    16    17 2   
    34    16    18 1   
    35    18    19 ar  
    36    18    20 ar  
    37    19    23 ar  
    38    20    21 ar  
    39    20    44 1   
    40    21    22 ar  
    41    21    45 1   
    42    22    23 ar  
    43    22    46 1   
    44    23    24 1   
    45    24    25 1   
    46    24    28 2   
    47    25    26 1   
    48    25    47 1   
    49    26    27 2   
    50    27    28 1   
    51    27    48 1   
    52    28    49 1   
@<TRIPOS>SUBSTRUCTURE
     1 DL1         1 TEMP              0 ****  ****    0 ROOT
