@<TRIPOS>MOLECULE
DL1
   49    52     1     0     0
SMALL
No Charge or Current Charge


@<TRIPOS>ATOM
      1 CAM         -5.5690     1.0220    -0.9060 c6         1 DL1       0.157300
      2 CAK         -6.9010     1.6710    -0.4200 c6         1 DL1       0.148100
      3 OAS         -7.8250     0.6600     0.0480 os         1 DL1      -0.445000
      4 CAL         -7.2910    -0.1090     1.1510 c6         1 DL1       0.148100
      5 CAN         -5.9770    -0.8370     0.7340 c6         1 DL1       0.157300
      6 NBB         -4.9780     0.0990     0.1200 nh         1 DL1      -0.781400
      7 CAV         -3.6020    -0.2240     0.0790 ca         1 DL1       0.302000
      8 CAJ         -2.6450     0.8030     0.0770 ca         1 DL1      -0.213000
      9 CBA         -1.2670     0.5030     0.0370 ca         1 DL1       0.123100
     10 OAT         -0.3030     1.4960     0.0360 os         1 DL1      -0.358100
     11 CAA         -0.6340     2.8970     0.0680 c3         1 DL1       0.153900
     12 CAH         -3.1660    -1.5610     0.0470 ca         1 DL1      -0.179000
     13 CAI         -1.7960    -1.8720     0.0070 ca         1 DL1      -0.078000
     14 CAY         -0.8340    -0.8390     0.0010 ca         1 DL1      -0.076000
     15 NAQ          0.5710    -1.0790    -0.0380 ns         1 DL1      -0.111000
     16 CAU          1.3400    -2.2380    -0.0780 c          1 DL1       0.509600
     17 OAB          0.8600    -3.3720    -0.0850 o          1 DL1      -0.596100
     18 CAW          2.8480    -1.9800    -0.1120 ca         1 DL1       0.302500
     19 NAP          3.3000    -0.6900    -0.1010 nb         1 DL1      -0.673000
     20 CAE          3.7450    -3.0690    -0.1530 ca         1 DL1      -0.104000
     21 CAC          5.1270    -2.8290    -0.1840 ca         1 DL1      -0.075000
     22 CAF          5.5730    -1.4990    -0.1730 ca         1 DL1      -0.147000
     23 CAX          4.6320    -0.4520    -0.1310 ca         1 DL1       0.434500
     24 CAZ          5.0680     0.9510    -0.1180 cc         1 DL1      -0.220500
     25 NAR          6.3540     1.4880    -0.1430 na         1 DL1       0.003800
     26 NAO          6.3560     2.8770    -0.1190 nc         1 DL1      -0.508800
     27 CAD          5.0670     3.1790    -0.0800 cd         1 DL1       0.226900
     28 CAG          4.2390     2.0380    -0.0780 cd         1 DL1      -0.173000
     29 H1          -5.7660     0.4660    -1.8340 h1         1 DL1       0.047450
     30 H2          -4.8670     1.8290    -1.1590 h1         1 DL1       0.047450
     31 H3          -6.6950     2.3770     0.3970 h1         1 DL1       0.052700
     32 H4          -7.3650     2.2300    -1.2440 h1         1 DL1       0.052700
     33 H5          -7.0910     0.5640     1.9970 h1         1 DL1       0.052700
     34 H6          -8.0390    -0.8470     1.4720 h1         1 DL1       0.052700
     35 H7          -5.5490    -1.3150     1.6280 h1         1 DL1       0.047450
     36 H8          -6.2280    -1.6370     0.0220 h1         1 DL1       0.047450
     37 H9          -2.9900     1.8300     0.1200 ha         1 DL1       0.120000
     38 H10          0.2810     3.5030     0.0570 h1         1 DL1       0.041700
     39 H11         -1.2370     3.1750    -0.8060 h1         1 DL1       0.041700
     40 H12         -1.1940     3.1450     0.9780 h1         1 DL1       0.041700
     41 H13         -3.8880    -2.3720     0.0390 ha         1 DL1       0.118000
     42 H14         -1.5080    -2.9180    -0.0220 ha         1 DL1       0.147000
     43 H15          1.1260    -0.2310    -0.0380 hn         1 DL1       0.197000
     44 H16          3.3700    -4.0900    -0.1610 ha         1 DL1       0.153000
     45 H17          5.8360    -3.6550    -0.2170 ha         1 DL1       0.127000
     46 H18          6.6370    -1.2850    -0.1960 ha         1 DL1       0.119000
     47 H19          7.2280     0.9620    -0.1750 hn         1 DL1       0.370000
     48 H20          4.7660     4.2200    -0.0540 h4         1 DL1       0.038100
     49 H21          3.1540     2.0360    -0.0490 ha         1 DL1       0.157000
@<TRIPOS>BOND
     1     1     2 1   
     2     1     6 1   
     3     1    29 1   
     4     1    30 1   
     5     2     3 1   
     6     2    31 1   
     7     2    32 1   
     8     3     4 1   
     9     4     5 1   
    10     4    33 1   
    11     4    34 1   
    12     5     6 1   
    13     5    35 1   
    14     5    36 1   
    15     6     7 1   
    16     7     8 ar  
    17     7    12 ar  
    18     8     9 ar  
    19     8    37 1   
    20     9    10 1   
    21     9    14 ar  
    22    10    11 1   
    23    11    38 1   
    24    11    39 1   
    25    11    40 1   
    26    12    13 ar  
    27    12    41 1   
    28    13    14 ar  
    29    13    42 1   
    30    14    15 1   
    31    15    16 1   
    32    15    43 1   
    33    16    17 2   
    34    16    18 1   
    35    18    19 ar  
    36    18    20 ar  
    37    19    23 ar  
    38    20    21 ar  
    39    20    44 1   
    40    21    22 ar  
    41    21    45 1   
    42    22    23 ar  
    43    22    46 1   
    44    23    24 1   
    45    24    25 1   
    46    24    28 2   
    47    25    26 1   
    48    25    47 1   
    49    26    27 2   
    50    27    28 1   
    51    27    48 1   
    52    28    49 1   
@<TRIPOS>SUBSTRUCTURE
     1 DL1         1 TEMP              0 ****  ****    0 ROOT
