@<TRIPOS>MOLECULE
DL2
   42    45     1     0     0
SMALL
No Charge or Current Charge


@<TRIPOS>ATOM
      1 C10          2.4630     1.4590    -1.3250 c6         1 DL2      -0.113900
      2 C11          0.9920     1.6990    -0.9210 c6         1 DL2       0.101500
      3 C13         -1.3170     0.7820    -1.1840 c          1 DL2       0.613100
      4 C15         -3.1410    -0.7340    -0.4280 c2         1 DL2       0.524300
      5 C17         -5.3110    -0.9650     0.4960 c          1 DL2       0.704700
      6 C19         -2.4260    -1.3930     0.7470 c6         1 DL2      -0.162500
      7 C21          0.6450    -0.7810    -0.7620 c6         1 DL2       0.101500
      8 C22          2.1190    -0.9990    -1.1680 c6         1 DL2      -0.113900
      9 C23         -4.7040    -1.6430     1.7010 ce         1 DL2      -0.027200
     10 C25         -3.3800    -1.8500     1.8290 c2         1 DL2      -0.158200
     11 C1           4.8930     0.0790     2.3400 ca         1 DL2      -0.097000
     12 C2           4.3410     0.0810     1.0530 ca         1 DL2       0.050100
     13 C3           5.1140    -0.0980    -0.0610 ca         1 DL2       0.050100
     14 C4           6.4980    -0.2930     0.0270 ca         1 DL2      -0.097000
     15 C5           7.0860    -0.3010     1.3100 ca         1 DL2      -0.110500
     16 C6           6.2860    -0.1160     2.4640 ca         1 DL2      -0.110500
     17 O7           4.3870    -0.0610    -1.2070 os         1 DL2      -0.343100
     18 C8           3.0210     0.1620    -0.7170 c5         1 DL2       0.396000
     19 O9           3.0300     0.2530     0.7500 os         1 DL2      -0.343100
     20 N12          0.0820     0.5420    -1.1860 n          1 DL2      -0.411800
     21 C14         -2.2840    -0.3210    -1.5950 c3         1 DL2      -0.219700
     22 N16         -4.4280    -0.5710    -0.5220 ne         1 DL2      -0.641100
     23 O18         -6.5150    -0.7730     0.4060 o          1 DL2      -0.464100
     24 O20         -1.7560     1.8970    -0.9380 o          1 DL2      -0.598100
     25 Cl          -5.7960    -2.1790     2.9920 cl         1 DL2      -0.150000
     26 H1           2.5370     1.4100    -2.4190 hc         1 DL2       0.075700
     27 H2           3.0790     2.3100    -1.0080 hc         1 DL2       0.075700
     28 H3           0.9480     1.9390     0.1510 h1         1 DL2       0.064200
     29 H4           0.6280     2.5840    -1.4630 h1         1 DL2       0.064200
     30 H5          -1.8500    -2.2550     0.3840 hc         1 DL2       0.092200
     31 H6          -1.7070    -0.6860     1.1820 hc         1 DL2       0.092200
     32 H7           0.0650    -1.6140    -1.1760 h1         1 DL2       0.064200
     33 H8           0.5680    -0.8540     0.3330 h1         1 DL2       0.064200
     34 H9           2.4870    -1.9400    -0.7390 hc         1 DL2       0.075700
     35 H10          2.1840    -1.1080    -2.2590 hc         1 DL2       0.075700
     36 H11         -2.9600    -2.3430     2.7090 ha         1 DL2       0.202000
     37 H12          4.2640     0.2230     3.2160 ha         1 DL2       0.133000
     38 H13          7.0990    -0.4340    -0.8690 ha         1 DL2       0.133000
     39 H14          8.1590    -0.4500     1.4130 ha         1 DL2       0.119500
     40 H15          6.7460    -0.1230     3.4500 ha         1 DL2       0.119500
     41 H16         -2.9260     0.0890    -2.3820 hc         1 DL2       0.084700
     42 H17         -1.7700    -1.1920    -2.0070 hc         1 DL2       0.084700
@<TRIPOS>BOND
     1     1     2 1   
     2     1    18 1   
     3     1    26 1   
     4     1    27 1   
     5     2    20 1   
     6     2    28 1   
     7     2    29 1   
     8     3    20 1   
     9     3    21 1   
    10     3    24 2   
    11     4     6 1   
    12     4    21 1   
    13     4    22 2   
    14     5     9 1   
    15     5    22 1   
    16     5    23 2   
    17     6    10 1   
    18     6    30 1   
    19     6    31 1   
    20     7     8 1   
    21     7    20 1   
    22     7    32 1   
    23     7    33 1   
    24     8    18 1   
    25     8    34 1   
    26     8    35 1   
    27     9    10 2   
    28     9    25 1   
    29    10    36 1   
    30    11    12 ar  
    31    11    16 ar  
    32    11    37 1   
    33    12    13 ar  
    34    12    19 1   
    35    13    14 ar  
    36    13    17 1   
    37    14    15 ar  
    38    14    38 1   
    39    15    16 ar  
    40    15    39 1   
    41    16    40 1   
    42    17    18 1   
    43    18    19 1   
    44    21    41 1   
    45    21    42 1   
@<TRIPOS>SUBSTRUCTURE
     1 DL2         1 TEMP              0 ****  ****    0 ROOT
