@<TRIPOS>MOLECULE
DL2
   42    45     1     0     0
SMALL
abcg2


@<TRIPOS>ATOM
      1 C10          2.2260     1.1730    -0.1150 c6         1 DL2      -0.113900
      2 C11          1.1400     0.9250     0.9260 c6         1 DL2       0.101500
      3 C13         -0.9880    -0.1030     0.3400 c          1 DL2       0.613100
      4 C15         -3.2100    -1.0260    -0.1950 c2         1 DL2       0.524300
      5 C17         -5.0270    -0.4840    -1.5380 c          1 DL2       0.704700
      6 C19         -4.0020    -1.0060     1.0630 c6         1 DL2      -0.162500
      7 C21          1.1000    -1.4520     0.4030 c6         1 DL2       0.101500
      8 C22          2.1910    -1.2770    -0.6510 c6         1 DL2      -0.113900
      9 C23         -5.8920    -0.4030    -0.3450 ce         1 DL2      -0.027200
     10 C25         -5.4220    -0.6440     0.8750 c2         1 DL2      -0.158200
     11 C1           6.2060     0.0120     1.3870 ca         1 DL2      -0.097000
     12 C2           5.1180    -0.0250     0.5500 ca         1 DL2       0.050100
     13 C3           5.2230     0.2670    -0.8010 ca         1 DL2       0.050100
     14 C4           6.4190     0.6100    -1.3810 ca         1 DL2      -0.097000
     15 C5           7.5390     0.6500    -0.5400 ca         1 DL2      -0.110500
     16 C6           7.4350     0.3590     0.8100 ca         1 DL2      -0.110500
     17 O7           4.0070     0.1370    -1.3850 os         1 DL2      -0.343100
     18 C8           3.0600    -0.0770    -0.3350 c5         1 DL2       0.396000
     19 O9           3.8360    -0.3470     0.8420 os         1 DL2      -0.343100
     20 N12          0.3340    -0.2280     0.5570 n          1 DL2      -0.411800
     21 C14         -1.7530    -1.3550    -0.0700 c3         1 DL2      -0.219700
     22 N16         -3.6800    -0.8090    -1.3620 ne         1 DL2      -0.641100
     23 O18         -5.4520    -0.2780    -2.6500 o          1 DL2      -0.464100
     24 O20         -1.5860     0.9580     0.4580 o          1 DL2      -0.598100
     25 CL          -7.5390     0.0140    -0.6290 cl         1 DL2      -0.150000
     26 H1           1.7650     1.4600    -1.0630 hc         1 DL2       0.075700
     27 H2           2.8600     2.0020     0.2080 hc         1 DL2       0.075700
     28 H3           1.5860     0.7450     1.9090 h1         1 DL2       0.064200
     29 H4           0.5030     1.8000     1.0160 h1         1 DL2       0.064200
     30 H5          -3.9310    -1.9940     1.5350 hc         1 DL2       0.092200
     31 H6          -3.5270    -0.3300     1.7810 hc         1 DL2       0.092200
     32 H7           0.4600    -2.2810     0.1190 h1         1 DL2       0.064200
     33 H8           1.5420    -1.7170     1.3670 h1         1 DL2       0.064200
     34 H9           2.8000    -2.1820    -0.7040 hc         1 DL2       0.075700
     35 H10          1.7300    -1.1290    -1.6300 hc         1 DL2       0.075700
     36 H11         -6.0570    -0.5910     1.7500 ha         1 DL2       0.202000
     37 H12          6.1210    -0.2160     2.4410 ha         1 DL2       0.133000
     38 H13          6.4970     0.8340    -2.4370 ha         1 DL2       0.133000
     39 H14          8.5000     0.9170    -0.9590 ha         1 DL2       0.119500
     40 H15          8.3150     0.3990     1.4370 ha         1 DL2       0.119500
     41 H16         -1.3880    -1.7240    -1.0310 hc         1 DL2       0.084700
     42 H17         -1.6120    -2.1510     0.6650 hc         1 DL2       0.084700
@<TRIPOS>BOND
     1     1     2 1   
     2     1    18 1   
     3     1    26 1   
     4     1    27 1   
     5     2    20 1   
     6     2    28 1   
     7     2    29 1   
     8     3    20 1   
     9     3    21 1   
    10     3    24 2   
    11     4     6 1   
    12     4    21 1   
    13     4    22 2   
    14     5     9 1   
    15     5    22 1   
    16     5    23 2   
    17     6    10 1   
    18     6    30 1   
    19     6    31 1   
    20     7     8 1   
    21     7    20 1   
    22     7    32 1   
    23     7    33 1   
    24     8    18 1   
    25     8    34 1   
    26     8    35 1   
    27     9    10 2   
    28     9    25 1   
    29    10    36 1   
    30    11    12 ar  
    31    11    16 ar  
    32    11    37 1   
    33    12    13 ar  
    34    12    19 1   
    35    13    14 ar  
    36    13    17 1   
    37    14    15 ar  
    38    14    38 1   
    39    15    16 ar  
    40    15    39 1   
    41    16    40 1   
    42    17    18 1   
    43    18    19 1   
    44    21    41 1   
    45    21    42 1   
@<TRIPOS>SUBSTRUCTURE
     1 DL2         1 TEMP              0 ****  ****    0 ROOT
