@<TRIPOS>MOLECULE
DL3
   82    86     1     0     0
SMALL
abcg2


@<TRIPOS>ATOM
      1 C4         -36.7150     0.1670    -2.8780 ca         1 DL3       0.155300
      2 C5         -36.9610     0.0020    -1.5150 ca         1 DL3      -0.265000
      3 C6         -37.3740    -1.2550    -1.1140 ca         1 DL3       0.146900
      4 N1         -37.5410    -2.2740    -1.9600 nb         1 DL3      -0.240000
      5 N3         -36.8550    -0.8280    -3.7430 nb         1 DL3      -0.256000
      6 CBQ        -37.8860    -4.3460    -3.8130 c3         1 DL3       0.237100
      7 C2         -37.2690    -2.0190    -3.2520 ca         1 DL3       0.387900
      8 CAA        -36.2680     1.4980    -3.4360 c3         1 DL3       0.154500
      9 NAH        -37.2210     2.5790    -3.1380 n3         1 DL3      -0.749500
     10 CAI        -38.2140     2.8640    -4.1940 c3         1 DL3       0.211800
     11 CAJ        -39.2160     1.7290    -4.3740 c6         1 DL3      -0.059700
     12 CAK        -40.1910     2.0660    -5.5040 c6         1 DL3      -0.070400
     13 CAL        -41.0890     0.8600    -5.8270 c6         1 DL3       0.160800
     14 NAM        -41.2490     0.0010    -4.6410 n7         1 DL3      -0.867400
     15 CAN        -41.3700     0.7920    -3.4150 c6         1 DL3       0.160800
     16 CAO        -40.0080     1.4250    -3.0890 c6         1 DL3      -0.070400
     17 SAP        -36.6710     3.8370    -2.2430 sy         1 DL3       1.193600
     18 OAQ        -35.8760     3.2880    -1.1710 o          1 DL3      -0.539500
     19 OAR        -37.8010     4.6740    -1.9280 o          1 DL3      -0.539500
     20 CAS        -35.5880     4.7460    -3.3190 ca         1 DL3      -0.263500
     21 CAX        -36.1380     5.6450    -4.2290 ca         1 DL3      -0.038500
     22 CAW        -35.3100     6.2710    -5.1510 ca         1 DL3      -0.037500
     23 CAT        -34.2210     4.4740    -3.3100 ca         1 DL3      -0.038500
     24 CAU        -33.3970     5.1030    -4.2300 ca         1 DL3      -0.037500
     25 CAV        -33.9500     5.9920    -5.1480 ca         1 DL3      -0.236500
     26 SAY        -32.8810     6.7690    -6.3480 sy         1 DL3       1.220600
     27 OAZ        -33.7000     7.6920    -7.0970 o          1 DL3      -0.546500
     28 OBA        -32.2060     5.7030    -7.0540 o          1 DL3      -0.546500
     29 NBB        -31.7620     7.5900    -5.5160 n3         1 DL3      -0.808500
     30 CBE        -32.0310     8.9030    -4.8910 c5         1 DL3       0.234500
     31 CBF        -33.3860     9.1060    -4.2060 c5         1 DL3      -0.098900
     32 CBG        -33.3420    10.6010    -3.8800 c5         1 DL3      -0.075400
     33 CBH        -32.6660    11.2540    -5.1120 c5         1 DL3      -0.075400
     34 CBI        -31.8930    10.1180    -5.8260 c5         1 DL3      -0.098900
     35 CBC        -30.4210     7.0260    -5.2920 c3         1 DL3       0.282100
     36 CBD        -29.3490     7.8210    -5.9980 ca         1 DL3      -0.106300
     37 CBJ        -29.3640     7.9470    -7.3870 ca         1 DL3      -0.085500
     38 CBK        -28.3910     8.6840    -8.0460 ca         1 DL3      -0.102500
     39 CBL        -27.3930     9.3000    -7.3000 ca         1 DL3       0.129000
     40 CL         -26.1600    10.2330    -8.1250 cl         1 DL3      -0.209000
     41 CBM        -27.3550     9.1930    -5.9190 ca         1 DL3      -0.102500
     42 CBN        -28.3410     8.4500    -5.2760 ca         1 DL3      -0.085500
     43 H1         -36.8470     0.8180    -0.8170 ha         1 DL3       0.150000
     44 H2         -37.5850    -1.4600    -0.0700 h4         1 DL3       0.022100
     45 H3         -37.9120    -4.9330    -4.7280 h1         1 DL3       0.041367
     46 H4         -37.2180    -4.8330    -3.1000 h1         1 DL3       0.041367
     47 H5         -38.8880    -4.3210    -3.3790 h1         1 DL3       0.041367
     48 H6         -37.2260    -2.7890    -5.1070 hn         1 DL3       0.507000
     49 H7         -36.1480     1.4150    -4.5160 h1         1 DL3       0.070200
     50 H8         -35.2970     1.7400    -3.0080 h1         1 DL3       0.070200
     51 H9         -37.6860     3.0470    -5.1360 h1         1 DL3       0.051700
     52 H10        -38.7450     3.7720    -3.9170 h1         1 DL3       0.051700
     53 H11        -38.6690     0.8320    -4.6700 hc         1 DL3       0.080700
     54 H12        -39.6530     2.3720    -6.4040 hc         1 DL3       0.044700
     55 H13        -40.8010     2.9200    -5.1970 hc         1 DL3       0.044700
     56 H14        -42.0560     1.2250    -6.2000 h1         1 DL3       0.030700
     57 H15        -40.6370     0.2620    -6.6220 h1         1 DL3       0.030700
     58 H16        -42.0660    -0.5870    -4.7580 hn         1 DL3       0.409000
     59 H18        -42.1370     1.5770    -3.5080 h1         1 DL3       0.030700
     60 H19        -41.6860     0.1340    -2.6050 h1         1 DL3       0.030700
     61 H20        -39.4300     0.7550    -2.4520 hc         1 DL3       0.044700
     62 H21        -40.1610     2.3480    -2.5230 hc         1 DL3       0.044700
     63 H22        -37.1960     5.8590    -4.2190 ha         1 DL3       0.138000
     64 H23        -35.7180     6.9750    -5.8610 ha         1 DL3       0.135500
     65 H24        -33.8060     3.7840    -2.5900 ha         1 DL3       0.138000
     66 H25        -32.3360     4.8970    -4.2270 ha         1 DL3       0.135500
     67 H26        -31.2730     8.9770    -4.1100 h1         1 DL3       0.053700
     68 H27        -34.2020     8.9060    -4.8990 hc         1 DL3       0.059450
     69 H28        -33.5120     8.4700    -3.3300 hc         1 DL3       0.059450
     70 H29        -34.3310    11.0130    -3.6780 hc         1 DL3       0.047950
     71 H30        -32.7310    10.7620    -2.9880 hc         1 DL3       0.047950
     72 H31        -32.0070    12.0690    -4.8130 hc         1 DL3       0.047950
     73 H32        -33.4170    11.6780    -5.7800 hc         1 DL3       0.047950
     74 H33        -30.8470    10.3630    -6.0050 hc         1 DL3       0.059450
     75 H34        -32.3470     9.8790    -6.7860 hc         1 DL3       0.059450
     76 H35        -30.4200     5.9990    -5.6480 h1         1 DL3       0.066200
     77 H36        -30.2300     7.0110    -4.2180 h1         1 DL3       0.066200
     78 H37        -30.1500     7.4730    -7.9620 ha         1 DL3       0.122500
     79 H38        -28.4050     8.7800    -9.1230 ha         1 DL3       0.133500
     80 H39        -26.5750     9.6830    -5.3530 ha         1 DL3       0.133500
     81 H40        -28.3240     8.3690    -4.1960 ha         1 DL3       0.122500
     82 NBP        -37.4200    -3.0150    -4.1470 nu         1 DL3      -0.931100
@<TRIPOS>BOND
     1     1     2 ar  
     2     1     5 ar  
     3     1     8 1   
     4     2     3 ar  
     5     2    43 1   
     6     3     4 ar  
     7     3    44 1   
     8     4     7 ar  
     9     5     7 ar  
    10     6    45 1   
    11     6    46 1   
    12     6    47 1   
    13     6    82 1   
    14     7    82 1   
    15     8     9 1   
    16     8    49 1   
    17     8    50 1   
    18     9    10 1   
    19     9    17 1   
    20    10    11 1   
    21    10    51 1   
    22    10    52 1   
    23    11    12 1   
    24    11    16 1   
    25    11    53 1   
    26    12    13 1   
    27    12    54 1   
    28    12    55 1   
    29    13    14 1   
    30    13    56 1   
    31    13    57 1   
    32    14    15 1   
    33    14    58 1   
    34    15    16 1   
    35    15    59 1   
    36    15    60 1   
    37    16    61 1   
    38    16    62 1   
    39    17    18 2   
    40    17    19 2   
    41    17    20 1   
    42    20    21 ar  
    43    20    23 ar  
    44    21    22 ar  
    45    21    63 1   
    46    22    25 ar  
    47    22    64 1   
    48    23    24 ar  
    49    23    65 1   
    50    24    25 ar  
    51    24    66 1   
    52    25    26 1   
    53    26    27 2   
    54    26    28 2   
    55    26    29 1   
    56    29    30 1   
    57    29    35 1   
    58    30    31 1   
    59    30    34 1   
    60    30    67 1   
    61    31    32 1   
    62    31    68 1   
    63    31    69 1   
    64    32    33 1   
    65    32    70 1   
    66    32    71 1   
    67    33    34 1   
    68    33    72 1   
    69    33    73 1   
    70    34    74 1   
    71    34    75 1   
    72    35    36 1   
    73    35    76 1   
    74    35    77 1   
    75    36    37 ar  
    76    36    42 ar  
    77    37    38 ar  
    78    37    78 1   
    79    38    39 ar  
    80    38    79 1   
    81    39    40 1   
    82    39    41 ar  
    83    41    42 ar  
    84    41    80 1   
    85    42    81 1   
    86    48    82 1   
@<TRIPOS>SUBSTRUCTURE
     1 DL3         1 TEMP              0 ****  ****    0 ROOT
