@<TRIPOS>MOLECULE
DL3
   82    86     1     0     0
SMALL
No Charge or Current Charge


@<TRIPOS>ATOM
      1 C4         -36.9680     0.3850    -2.3110 ca         1 DL3       0.155300
      2 C5         -37.9410    -0.1860    -1.4700 ca         1 DL3      -0.265000
      3 C6         -38.2830    -1.5300    -1.6830 ca         1 DL3       0.146900
      4 N1         -37.6940    -2.2570    -2.6510 nb         1 DL3      -0.240000
      5 N3         -36.3710    -0.3460    -3.2770 nb         1 DL3      -0.256000
      6 CBQ        -36.3730    -3.7550    -4.7730 c3         1 DL3       0.237100
      7 C2         -36.7660    -1.6250    -3.3970 ca         1 DL3       0.387900
      8 CAA        -36.5380     1.8430    -2.1630 c3         1 DL3       0.154500
      9 NAH        -37.6000     2.8720    -2.3960 n3         1 DL3      -0.749500
     10 CAI        -38.1110     2.8990    -3.7960 c3         1 DL3       0.211800
     11 CAJ        -39.2050     1.8490    -4.1630 c6         1 DL3      -0.059700
     12 CAK        -39.6790     2.0000    -5.6330 c6         1 DL3      -0.070400
     13 CAL        -40.7040     0.8980    -6.0300 c6         1 DL3       0.160800
     14 NAM        -41.3790     0.2700    -4.8630 n7         1 DL3      -0.867400
     15 CAN        -41.7070     1.2320    -3.7860 c6         1 DL3       0.160800
     16 CAO        -40.4370     1.9220    -3.2090 c6         1 DL3      -0.070400
     17 SAP        -37.1820     4.4280    -1.8140 sy         1 DL3       1.193600
     18 OAQ        -36.5500     4.2260    -0.5040 o          1 DL3      -0.539500
     19 OAR        -38.3950     5.2470    -1.9320 o          1 DL3      -0.539500
     20 CAS        -35.9380     4.9830    -3.0010 ca         1 DL3      -0.263500
     21 CAX        -36.3160     5.7530    -4.1220 ca         1 DL3      -0.038500
     22 CAW        -35.3470     6.1780    -5.0470 ca         1 DL3      -0.037500
     23 CAT        -34.5800     4.6490    -2.8120 ca         1 DL3      -0.038500
     24 CAU        -33.6120     5.0740    -3.7380 ca         1 DL3      -0.037500
     25 CAV        -33.9900     5.8440    -4.8560 ca         1 DL3      -0.236500
     26 SAY        -32.7330     6.3880    -6.0300 sy         1 DL3       1.220600
     27 OAZ        -33.2640     7.4010    -6.9490 o          1 DL3      -0.546500
     28 OBA        -32.1230     5.1580    -6.5490 o          1 DL3      -0.546500
     29 NBB        -31.5380     7.1290    -5.0400 n3         1 DL3      -0.808500
     30 CBE        -31.7230     8.4200    -4.2880 c5         1 DL3       0.234500
     31 CBF        -33.1550     8.5950    -3.7180 c5         1 DL3      -0.098900
     32 CBG        -33.0690    10.0810    -3.3060 c5         1 DL3      -0.075400
     33 CBH        -32.5690    10.7200    -4.6330 c5         1 DL3      -0.075400
     34 CBI        -31.5900     9.6570    -5.2350 c5         1 DL3      -0.098900
     35 CBC        -30.1270     6.8010    -5.3860 c3         1 DL3       0.282100
     36 CBD        -29.5020     7.6300    -6.5140 ca         1 DL3      -0.106300
     37 CBJ        -29.8570     7.4160    -7.8640 ca         1 DL3      -0.085500
     38 CBK        -29.2660     8.1810    -8.8850 ca         1 DL3      -0.102500
     39 CBL        -28.3070     9.1550    -8.5690 ca         1 DL3       0.129000
     40 Cl         -27.5690    10.1100    -9.8480 cl         1 DL3      -0.209000
     41 CBM        -27.9320     9.3620    -7.2330 ca         1 DL3      -0.102500
     42 CBN        -28.5210     8.5990    -6.2100 ca         1 DL3      -0.085500
     43 H1         -38.4210     0.3990    -0.6900 ha         1 DL3       0.150000
     44 H2         -39.0340    -2.0310    -1.0740 h4         1 DL3       0.022100
     45 H3         -35.7210    -4.0470    -5.6070 h1         1 DL3       0.041367
     46 H4         -36.1660    -4.4200    -3.9230 h1         1 DL3       0.041367
     47 H5         -37.4170    -3.9010    -5.0830 h1         1 DL3       0.041367
     48 H6         -35.4410    -1.8270    -4.9380 hn         1 DL3       0.507000
     49 H7         -35.6850     2.0280    -2.8310 h1         1 DL3       0.070200
     50 H8         -36.1460     1.9220    -1.1410 h1         1 DL3       0.070200
     51 H9         -37.2760     2.7970    -4.5030 h1         1 DL3       0.051700
     52 H10        -38.5720     3.8720    -4.0130 h1         1 DL3       0.051700
     53 H11        -38.7550     0.8550    -4.0780 hc         1 DL3       0.080700
     54 H12        -38.8220     1.9690    -6.3200 hc         1 DL3       0.044700
     55 H13        -40.1430     2.9880    -5.7650 hc         1 DL3       0.044700
     56 H14        -41.4590     1.3420    -6.6960 h1         1 DL3       0.030700
     57 H15        -40.1920     0.1090    -6.6010 h1         1 DL3       0.030700
     58 H16        -42.2370    -0.1980    -5.1830 hn         1 DL3       0.409000
     59 H18        -42.3810     2.0010    -4.1940 h1         1 DL3       0.030700
     60 H19        -42.2470     0.7190    -2.9770 h1         1 DL3       0.030700
     61 H20        -40.1770     1.4580    -2.2490 hc         1 DL3       0.044700
     62 H21        -40.6810     2.9690    -2.9800 hc         1 DL3       0.044700
     63 H22        -37.3570     6.0260    -4.2820 ha         1 DL3       0.138000
     64 H23        -35.6550     6.7700    -5.9070 ha         1 DL3       0.135500
     65 H24        -34.2690     4.0610    -1.9500 ha         1 DL3       0.138000
     66 H25        -32.5670     4.8120    -3.5810 ha         1 DL3       0.135500
     67 H26        -30.9910     8.4950    -3.4710 h1         1 DL3       0.053700
     68 H27        -33.9510     8.4660    -4.4570 hc         1 DL3       0.059450
     69 H28        -33.3570     7.9320    -2.8690 hc         1 DL3       0.059450
     70 H29        -34.0370    10.4860    -2.9880 hc         1 DL3       0.047950
     71 H30        -32.3610    10.2390    -2.4830 hc         1 DL3       0.047950
     72 H31        -32.0810    11.6870    -4.4630 hc         1 DL3       0.047950
     73 H32        -33.4060    10.9030    -5.3170 hc         1 DL3       0.047950
     74 H33        -30.5640    10.0380    -5.2400 hc         1 DL3       0.059450
     75 H34        -31.8480     9.4370    -6.2750 hc         1 DL3       0.059450
     76 H35        -30.0030     5.7370    -5.6260 h1         1 DL3       0.066200
     77 H36        -29.5100     6.9480    -4.4890 h1         1 DL3       0.066200
     78 H37        -30.5880     6.6580    -8.1290 ha         1 DL3       0.122500
     79 H38        -29.5480     8.0150    -9.9220 ha         1 DL3       0.133500
     80 H39        -27.1840    10.1130    -6.9900 ha         1 DL3       0.133500
     81 H40        -28.2210     8.7690    -5.1780 ha         1 DL3       0.122500
     82 NBP        -36.1360    -2.3470    -4.3990 nu         1 DL3      -0.931100
@<TRIPOS>BOND
     1     1     2 ar  
     2     1     5 ar  
     3     1     8 1   
     4     2     3 ar  
     5     2    43 1   
     6     3     4 ar  
     7     3    44 1   
     8     4     7 ar  
     9     5     7 ar  
    10     6    45 1   
    11     6    46 1   
    12     6    47 1   
    13     6    82 1   
    14     7    82 1   
    15     8     9 1   
    16     8    49 1   
    17     8    50 1   
    18     9    10 1   
    19     9    17 1   
    20    10    11 1   
    21    10    51 1   
    22    10    52 1   
    23    11    12 1   
    24    11    16 1   
    25    11    53 1   
    26    12    13 1   
    27    12    54 1   
    28    12    55 1   
    29    13    14 1   
    30    13    56 1   
    31    13    57 1   
    32    14    15 1   
    33    14    58 1   
    34    15    16 1   
    35    15    59 1   
    36    15    60 1   
    37    16    61 1   
    38    16    62 1   
    39    17    18 2   
    40    17    19 2   
    41    17    20 1   
    42    20    21 ar  
    43    20    23 ar  
    44    21    22 ar  
    45    21    63 1   
    46    22    25 ar  
    47    22    64 1   
    48    23    24 ar  
    49    23    65 1   
    50    24    25 ar  
    51    24    66 1   
    52    25    26 1   
    53    26    27 2   
    54    26    28 2   
    55    26    29 1   
    56    29    30 1   
    57    29    35 1   
    58    30    31 1   
    59    30    34 1   
    60    30    67 1   
    61    31    32 1   
    62    31    68 1   
    63    31    69 1   
    64    32    33 1   
    65    32    70 1   
    66    32    71 1   
    67    33    34 1   
    68    33    72 1   
    69    33    73 1   
    70    34    74 1   
    71    34    75 1   
    72    35    36 1   
    73    35    76 1   
    74    35    77 1   
    75    36    37 ar  
    76    36    42 ar  
    77    37    38 ar  
    78    37    78 1   
    79    38    39 ar  
    80    38    79 1   
    81    39    40 1   
    82    39    41 ar  
    83    41    42 ar  
    84    41    80 1   
    85    42    81 1   
    86    48    82 1   
@<TRIPOS>SUBSTRUCTURE
     1 DL3         1 TEMP              0 ****  ****    0 ROOT
