@<TRIPOS>MOLECULE
DL4
   71    74     1     0     0
SMALL
bcc


@<TRIPOS>ATOM
      1 O3          -9.8220     0.0940     0.8500 o          1 DL4      -0.844300
      2 C27         -8.6710    -0.2830     1.1590 c          1 DL4       0.928600
      3 O2          -8.3850    -1.0380     2.1100 o          1 DL4      -0.844300
      4 C25         -7.5200     0.2510     0.2740 c3         1 DL4      -0.191700
      5 C26         -7.8130    -0.0540    -1.1950 c3         1 DL4      -0.060100
      6 C24         -6.1410    -0.2460     0.7000 c3         1 DL4      -0.053400
      7 C23         -4.9800     0.4560     0.0010 c3         1 DL4      -0.079400
      8 C22         -3.6260    -0.0460     0.4920 c3         1 DL4      -0.077400
      9 C20         -2.4050     0.5710    -0.2050 c3         1 DL4      -0.050700
     10 C21         -2.3120     2.0620     0.1090 c3         1 DL4      -0.084100
     11 C17         -1.1380    -0.2050     0.1820 c5         1 DL4      -0.050700
     12 C16         -1.2150    -1.6980    -0.2400 c5         1 DL4      -0.077400
     13 C15          0.2240    -2.1590    -0.5410 c5         1 DL4      -0.072400
     14 C14          1.0780    -0.9940    -0.0540 c5         1 DL4      -0.066700
     15 C8           2.5260    -0.9140    -0.5080 c6         1 DL4      -0.044700
     16 C7           3.2870    -2.1910    -0.1800 c6         1 DL4      -0.069400
     17 C6           4.7590    -2.0740    -0.5550 c6         1 DL4      -0.052200
     18 C13          0.2330     0.2510    -0.3770 c5         1 DL4      -0.037000
     19 C18          0.1280     0.5050    -1.8840 c3         1 DL4      -0.077100
     20 C12          0.8990     1.4360     0.3260 c6         1 DL4      -0.062400
     21 C11          2.3770     1.5710    -0.0530 c6         1 DL4      -0.071400
     22 C9           3.1870     0.2920     0.1770 c6         1 DL4      -0.045700
     23 C10          4.6950     0.4630    -0.1730 c6         1 DL4      -0.012800
     24 C1           5.2970     1.5280     0.7550 c6         1 DL4      -0.064400
     25 C19          4.8980     0.8700    -1.6430 c3         1 DL4      -0.080100
     26 C5           5.4010    -0.8610     0.0420 c2         1 DL4      -0.021400
     27 C4           6.5710    -0.9720     0.6950 ce         1 DL4      -0.279200
     28 C3           7.3490     0.1710     1.1650 c          1 DL4       0.578300
     29 O1           8.3940     0.0250     1.7770 o          1 DL4      -0.539100
     30 C2           6.8170     1.5230     0.7820 c6         1 DL4      -0.181400
     31 H25         -7.5270     1.3450     0.3860 hc         1 DL4       0.023700
     32 H26         -8.7860     0.3370    -1.4880 hc         1 DL4       0.011367
     33 H26A        -7.0670     0.3840    -1.8600 hc         1 DL4       0.011367
     34 H26B        -7.8170    -1.1320    -1.3770 hc         1 DL4       0.011367
     35 H24         -6.0280    -0.1090     1.7780 hc         1 DL4       0.040200
     36 H24A        -6.0670    -1.3260     0.5270 hc         1 DL4       0.040200
     37 H23         -5.0370     0.3050    -1.0820 hc         1 DL4       0.025700
     38 H23A        -5.0750     1.5350     0.1600 hc         1 DL4       0.025700
     39 H22         -3.5410     0.1240     1.5730 hc         1 DL4       0.035700
     40 H22A        -3.6110    -1.1310     0.3610 hc         1 DL4       0.035700
     41 H20         -2.5490     0.4560    -1.2880 hc         1 DL4       0.042700
     42 H21         -2.0500     2.2240     1.1580 hc         1 DL4       0.029033
     43 H21A        -1.5620     2.5650    -0.4980 hc         1 DL4       0.029033
     44 H21B        -3.2580     2.5700    -0.0790 hc         1 DL4       0.029033
     45 H17         -1.0540    -0.1590     1.2780 hc         1 DL4       0.044700
     46 H16         -1.6670    -2.3060     0.5450 hc         1 DL4       0.048700
     47 H16A        -1.8560    -1.8070    -1.1190 hc         1 DL4       0.048700
     48 H15          0.4740    -3.0950    -0.0400 hc         1 DL4       0.036700
     49 H15A         0.3750    -2.3280    -1.6110 hc         1 DL4       0.036700
     50 H14          1.1050    -1.0630     1.0450 hc         1 DL4       0.044700
     51 H8           2.5510    -0.7770    -1.5970 hc         1 DL4       0.050700
     52 H7           3.1990    -2.4040     0.8910 hc         1 DL4       0.046700
     53 H7A          2.8490    -3.0440    -0.7040 hc         1 DL4       0.046700
     54 H6           5.3070    -2.9710    -0.2650 hc         1 DL4       0.051200
     55 H6A          4.8430    -1.9990    -1.6460 hc         1 DL4       0.051200
     56 H18         -0.3150    -0.3370    -2.4180 hc         1 DL4       0.031033
     57 H18A        -0.4990     1.3750    -2.0870 hc         1 DL4       0.031033
     58 H18B         1.0950     0.7020    -2.3470 hc         1 DL4       0.031033
     59 H12          0.4020     2.3790     0.0900 hc         1 DL4       0.043700
     60 H12A         0.8090     1.3000     1.4100 hc         1 DL4       0.043700
     61 H11          2.4550     1.8740    -1.1000 hc         1 DL4       0.036200
     62 H11A         2.8030     2.3950     0.5240 hc         1 DL4       0.036200
     63 H9           3.1520     0.0820     1.2570 hc         1 DL4       0.048700
     64 H1           4.9490     2.5180     0.4600 hc         1 DL4       0.050200
     65 H1A          4.9290     1.3590     1.7720 hc         1 DL4       0.050200
     66 H19          4.5030     1.8680    -1.8290 hc         1 DL4       0.037033
     67 H19A         5.9570     0.8850    -1.9070 hc         1 DL4       0.037033
     68 H19B         4.4030     0.1880    -2.3350 hc         1 DL4       0.037033
     69 H4           7.0130    -1.9530     0.8410 ha         1 DL4       0.142000
     70 H2           7.2220     1.7660    -0.2080 hc         1 DL4       0.066200
     71 H2A          7.2000     2.2800     1.4680 hc         1 DL4       0.066200
@<TRIPOS>BOND
     1     1     2 1   
     2     2     3 1   
     3     2     4 1   
     4     4     5 1   
     5     4     6 1   
     6     4    31 1   
     7     5    32 1   
     8     5    33 1   
     9     5    34 1   
    10     6     7 1   
    11     6    35 1   
    12     6    36 1   
    13     7     8 1   
    14     7    37 1   
    15     7    38 1   
    16     8     9 1   
    17     8    39 1   
    18     8    40 1   
    19     9    10 1   
    20     9    11 1   
    21     9    41 1   
    22    10    42 1   
    23    10    43 1   
    24    10    44 1   
    25    11    12 1   
    26    11    18 1   
    27    11    45 1   
    28    12    13 1   
    29    12    46 1   
    30    12    47 1   
    31    13    14 1   
    32    13    48 1   
    33    13    49 1   
    34    14    15 1   
    35    14    18 1   
    36    14    50 1   
    37    15    16 1   
    38    15    22 1   
    39    15    51 1   
    40    16    17 1   
    41    16    52 1   
    42    16    53 1   
    43    17    26 1   
    44    17    54 1   
    45    17    55 1   
    46    18    19 1   
    47    18    20 1   
    48    19    56 1   
    49    19    57 1   
    50    19    58 1   
    51    20    21 1   
    52    20    59 1   
    53    20    60 1   
    54    21    22 1   
    55    21    61 1   
    56    21    62 1   
    57    22    23 1   
    58    22    63 1   
    59    23    24 1   
    60    23    25 1   
    61    23    26 1   
    62    24    30 1   
    63    24    64 1   
    64    24    65 1   
    65    25    66 1   
    66    25    67 1   
    67    25    68 1   
    68    26    27 2   
    69    27    28 1   
    70    27    69 1   
    71    28    29 2   
    72    28    30 1   
    73    30    70 1   
    74    30    71 1   
@<TRIPOS>SUBSTRUCTURE
     1 DL4         1 TEMP              0 ****  ****    0 ROOT
