@<TRIPOS>MOLECULE
DL4
   71    74     1     0     0
SMALL
No Charge or Current Charge


@<TRIPOS>ATOM
      1 O3          -9.3980     0.2430     2.0320 o          1 DL4      -0.739000
      2 C27         -8.7670    -0.4450     1.2430 c          1 DL4       0.718000
      3 O2          -8.9490    -1.6460     1.1070 o          1 DL4      -0.739000
      4 C25         -7.6840     0.2470     0.3780 c3         1 DL4      -0.191700
      5 C26         -8.0460     0.1700    -1.1270 c3         1 DL4      -0.060100
      6 C24         -6.2720    -0.3190     0.6990 c3         1 DL4      -0.053400
      7 C23         -5.0990     0.4790     0.0780 c3         1 DL4      -0.079400
      8 C22         -3.7120    -0.0680     0.5020 c3         1 DL4      -0.077400
      9 C20         -2.4770     0.5640    -0.2210 c3         1 DL4      -0.050700
     10 C21         -2.3570     2.0730     0.1180 c3         1 DL4      -0.084100
     11 C17         -1.1480    -0.2570     0.1160 c5         1 DL4      -0.050700
     12 C16         -1.2310    -1.7560    -0.3630 c5         1 DL4      -0.077400
     13 C15          0.2340    -2.2180    -0.6310 c5         1 DL4      -0.072400
     14 C14          1.0740    -1.0420    -0.0840 c5         1 DL4      -0.066700
     15 C8           2.5740    -0.9990    -0.4860 c6         1 DL4      -0.044700
     16 C7           3.3600    -2.2360     0.0070 c6         1 DL4      -0.069400
     17 C6           4.8510    -2.1280    -0.3780 c6         1 DL4      -0.052200
     18 C13          0.2430     0.2130    -0.5280 c5         1 DL4      -0.037000
     19 C18          0.2110     0.4600    -2.0990 c3         1 DL4      -0.077100
     20 C12          0.8910     1.4710     0.1480 c6         1 DL4      -0.062400
     21 C11          2.4010     1.6450    -0.1870 c6         1 DL4      -0.071400
     22 C9           3.2330     0.3290     0.1320 c6         1 DL4      -0.045700
     23 C10          4.7990     0.4860    -0.1610 c6         1 DL4      -0.012800
     24 C1           5.3820     1.6350     0.7380 c6         1 DL4      -0.064400
     25 C19          5.0680     0.8050    -1.6690 c3         1 DL4      -0.080100
     26 C5           5.5160    -0.8520     0.1450 c2         1 DL4      -0.021400
     27 C4           6.7080    -0.9190     0.7870 ce         1 DL4      -0.329200
     28 C3           7.4370     0.2630     1.3060 c          1 DL4       0.578300
     29 O1           8.3940     0.1590     2.0610 o          1 DL4      -0.539100
     30 C2           6.9260     1.6190     0.8250 c6         1 DL4      -0.181400
     31 H25         -7.6790     1.3100     0.6520 hc         1 DL4       0.023700
     32 H26         -9.0670     0.5330    -1.2920 hc         1 DL4       0.011367
     33 H26A        -7.3720     0.7910    -1.7290 hc         1 DL4       0.011367
     34 H26B        -7.9850    -0.8610    -1.4940 hc         1 DL4       0.011367
     35 H24         -6.1430    -0.3300     1.7880 hc         1 DL4       0.040200
     36 H24A        -6.2140    -1.3640     0.3670 hc         1 DL4       0.040200
     37 H23         -5.1720     0.4460    -1.0150 hc         1 DL4       0.025700
     38 H23A        -5.2010     1.5270     0.3810 hc         1 DL4       0.025700
     39 H22         -3.5940     0.0520     1.5870 hc         1 DL4       0.035700
     40 H22A        -3.7260    -1.1470     0.3140 hc         1 DL4       0.035700
     41 H20         -2.7220     0.5310    -1.3050 hc         1 DL4       0.042700
     42 H21         -1.9560     2.2210     1.1270 hc         1 DL4       0.029033
     43 H21A        -1.7090     2.5770    -0.6050 hc         1 DL4       0.029033
     44 H21B        -3.3200     2.5890     0.0570 hc         1 DL4       0.029033
     45 H17         -1.0640    -0.2350     1.2100 hc         1 DL4       0.044700
     46 H16         -1.7090    -2.3860     0.3960 hc         1 DL4       0.048700
     47 H16A        -1.8310    -1.8570    -1.2740 hc         1 DL4       0.048700
     48 H15          0.4650    -3.1590    -0.1190 hc         1 DL4       0.036700
     49 H15A         0.4170    -2.3850    -1.6980 hc         1 DL4       0.036700
     50 H14          1.0940    -1.1090     1.0120 hc         1 DL4       0.044700
     51 H8           2.6430    -0.9640    -1.5810 hc         1 DL4       0.050700
     52 H7           3.2680    -2.3330     1.0980 hc         1 DL4       0.046700
     53 H7A          2.9390    -3.1530    -0.4270 hc         1 DL4       0.046700
     54 H6           5.3800    -3.0140    -0.0020 hc         1 DL4       0.051200
     55 H6A          4.9500    -2.1650    -1.4710 hc         1 DL4       0.051200
     56 H18         -0.2950    -0.3500    -2.6360 hc         1 DL4       0.031033
     57 H18A        -0.3350     1.3800    -2.3360 hc         1 DL4       0.031033
     58 H18B         1.2110     0.5570    -2.5330 hc         1 DL4       0.031033
     59 H12          0.3770     2.3910    -0.1480 hc         1 DL4       0.043700
     60 H12A         0.7730     1.3960     1.2370 hc         1 DL4       0.043700
     61 H11          2.5130     1.9240    -1.2420 hc         1 DL4       0.036200
     62 H11A         2.7830     2.4930     0.3940 hc         1 DL4       0.036200
     63 H9           3.1520     0.1990     1.2210 hc         1 DL4       0.048700
     64 H1           5.0580     2.6170     0.3680 hc         1 DL4       0.050200
     65 H1A          4.9820     1.5460     1.7580 hc         1 DL4       0.050200
     66 H19          4.7300     1.8120    -1.9400 hc         1 DL4       0.037033
     67 H19A         6.1360     0.7500    -1.9090 hc         1 DL4       0.037033
     68 H19B         4.5600     0.1010    -2.3360 hc         1 DL4       0.037033
     69 H4           7.1770    -1.8770     1.0020 ha         1 DL4       0.192000
     70 H2           7.3160     1.7590    -0.1900 hc         1 DL4       0.066200
     71 H2A          7.3310     2.4220     1.4540 hc         1 DL4       0.066200
@<TRIPOS>BOND
     1     1     2 1   
     2     2     3 1   
     3     2     4 1   
     4     4     5 1   
     5     4     6 1   
     6     4    31 1   
     7     5    32 1   
     8     5    33 1   
     9     5    34 1   
    10     6     7 1   
    11     6    35 1   
    12     6    36 1   
    13     7     8 1   
    14     7    37 1   
    15     7    38 1   
    16     8     9 1   
    17     8    39 1   
    18     8    40 1   
    19     9    10 1   
    20     9    11 1   
    21     9    41 1   
    22    10    42 1   
    23    10    43 1   
    24    10    44 1   
    25    11    12 1   
    26    11    18 1   
    27    11    45 1   
    28    12    13 1   
    29    12    46 1   
    30    12    47 1   
    31    13    14 1   
    32    13    48 1   
    33    13    49 1   
    34    14    15 1   
    35    14    18 1   
    36    14    50 1   
    37    15    16 1   
    38    15    22 1   
    39    15    51 1   
    40    16    17 1   
    41    16    52 1   
    42    16    53 1   
    43    17    26 1   
    44    17    54 1   
    45    17    55 1   
    46    18    19 1   
    47    18    20 1   
    48    19    56 1   
    49    19    57 1   
    50    19    58 1   
    51    20    21 1   
    52    20    59 1   
    53    20    60 1   
    54    21    22 1   
    55    21    61 1   
    56    21    62 1   
    57    22    23 1   
    58    22    63 1   
    59    23    24 1   
    60    23    25 1   
    61    23    26 1   
    62    24    30 1   
    63    24    64 1   
    64    24    65 1   
    65    25    66 1   
    66    25    67 1   
    67    25    68 1   
    68    26    27 2   
    69    27    28 1   
    70    27    69 1   
    71    28    29 2   
    72    28    30 1   
    73    30    70 1   
    74    30    71 1   
@<TRIPOS>SUBSTRUCTURE
     1 DL4         1 TEMP              0 ****  ****    0 ROOT
