@<TRIPOS>MOLECULE
DL5
   61    65     1     0     0
SMALL
abcg2


@<TRIPOS>ATOM
      1 N1          -3.7850     5.5200    -1.6540 nb         1 DL5      -0.342000
      2 C2          -4.3250     4.4510    -1.0750 ca         1 DL5       0.126900
      3 N3          -3.7130     3.4090    -0.5410 nb         1 DL5      -0.177000
      4 C4          -2.3880     3.5190    -0.6350 ca         1 DL5       0.083500
      5 C5          -1.6820     4.5660    -1.2050 ca         1 DL5      -0.078600
      6 C6          -2.4530     5.6140    -1.7390 ca         1 DL5       0.417900
      7 N6          -1.9100     6.6810    -2.3310 nv         1 DL5      -1.090900
      8 N7          -0.3340     4.3440    -1.1160 nc         1 DL5      -0.590100
      9 C8          -0.2270     3.1950    -0.5090 cd         1 DL5       0.481700
     10 N9          -1.4400     2.6410    -0.2000 na         1 DL5      -0.298300
     11 PA           3.3050     0.8430    -0.3440 p5         1 DL5       1.462800
     12 PB           5.9150     0.7130     1.0630 p5         1 DL5       1.437400
     13 PG           8.1980    -1.2520     0.2700 p5         1 DL5       1.132500
     14 C01          6.3670    -0.9570     0.5460 c3         1 DL5      -0.439400
     15 C1          -1.7380     1.4010     0.5150 c5         1 DL5       0.310300
     16 O1A          2.8490     2.2720    -0.4680 o          1 DL5      -0.861000
     17 O1B          6.3680     1.7660     0.0880 o          1 DL5      -0.761000
     18 C1F         -3.5680    -1.5050     0.3000 c5         1 DL5       0.569400
     19 O1G          8.9090    -0.5300     1.4200 o          1 DL5      -0.717500
     20 C7          -2.4720     0.4080    -0.4030 c5         1 DL5       0.122300
     21 O2          -3.6450    -0.1120     0.1810 os         1 DL5      -0.449000
     22 O2A          3.8570     0.1470    -1.5520 o          1 DL5      -0.861000
     23 O2B          6.1460     0.9170     2.5380 o          1 DL5      -0.761000
     24 C2F         -4.5640    -2.1820    -0.6360 c2         1 DL5      -0.299800
     25 N2F         -4.3560    -2.0660    -2.0640 no         1 DL5       0.691100
     26 O2F         -3.5670    -1.2390    -2.4590 o          1 DL5      -0.466500
     27 O2G          8.3380    -2.7810     0.3320 o          1 DL5      -0.717500
     28 C3          -1.5270    -0.7840    -0.5330 c5         1 DL5       0.121300
     29 O3          -2.2590    -1.8800    -0.0100 os         1 DL5      -0.460000
     30 O3A          4.2190     0.6500     0.9720 os         1 DL5      -0.697800
     31 C3F         -5.6620    -2.8500    -0.2540 ce         1 DL5      -0.177100
     32 O3F         -4.9830    -2.7910    -2.8000 o          1 DL5      -0.466500
     33 O3G          8.5140    -0.6770    -1.1140 o          1 DL5      -0.717500
     34 C9          -0.2900    -0.4270     0.2870 c5         1 DL5       0.140300
     35 O4          -0.5540     0.8170     0.9300 os         1 DL5      -0.401000
     36 C4F         -5.9420    -3.0400     1.1250 ce         1 DL5       0.144900
     37 N4F         -7.0770    -3.6620     1.4640 nh         1 DL5       0.230300
     38 O4F         -7.2640    -3.8240     2.7720 oh         1 DL5      -0.584000
     39 C10          0.9530    -0.3230    -0.5770 c3         1 DL5       0.224600
     40 O5           2.0460    -0.0500     0.2600 os         1 DL5      -0.576400
     41 C5F         -5.0000    -2.6100     2.0970 ce         1 DL5      -0.177100
     42 O5F         -7.9210    -4.0720     0.7050 o          1 DL5      -0.611000
     43 C6F         -3.9040    -1.9370     1.7180 c2         1 DL5      -0.299800
     44 N6F         -2.9920    -1.5590     2.7770 no         1 DL5       0.691100
     45 O6F         -2.2000    -0.6760     2.5530 o          1 DL5      -0.466500
     46 O7F         -3.0690    -2.1360     3.8370 o          1 DL5      -0.466500
     47 H2          -5.4100     4.4390    -1.0380 h5         1 DL5       0.017100
     48 HN6         -0.9150     6.8160    -2.3380 hn         1 DL5       0.487500
     49 HN6A        -2.4940     7.4380    -2.6400 hn         1 DL5       0.487500
     50 H8           0.7160     2.7190    -0.2710 h5         1 DL5       0.166800
     51 H01          6.0060    -1.6450     1.3170 hc         1 DL5       0.101200
     52 H01A         5.8210    -1.1980    -0.3690 hc         1 DL5       0.101200
     53 H1          -2.3580     1.6710     1.3750 h2         1 DL5       0.100700
     54 H6          -2.7150     0.8690    -1.3610 h1         1 DL5       0.090700
     55 H3          -1.2610    -0.9990    -1.5690 h1         1 DL5       0.087700
     56 H3F         -6.3350    -3.2560    -0.9950 ha         1 DL5       0.207000
     57 H4          -0.1160    -1.1810     1.0590 h1         1 DL5       0.102700
     58 H5           1.0880    -1.2780    -1.1000 h1         1 DL5       0.011200
     59 H5'A         0.8050     0.4430    -1.3500 h1         1 DL5       0.011200
     60 H5F         -5.1550    -2.8280     3.1430 ha         1 DL5       0.207000
     61 H4F         -8.1100    -4.2980     2.8680 ho         1 DL5       0.442000
@<TRIPOS>BOND
     1     1     2 ar  
     2     1     6 ar  
     3     2     3 ar  
     4     2    47 1   
     5     3     4 ar  
     6     4     5 ar  
     7     4    10 1   
     8     5     6 ar  
     9     5     8 1   
    10     6     7 1   
    11     7    48 1   
    12     7    49 1   
    13     8     9 2   
    14     9    10 1   
    15     9    50 1   
    16    10    15 1   
    17    11    16 1   
    18    11    22 1   
    19    11    30 1   
    20    11    40 1   
    21    12    14 1   
    22    12    17 1   
    23    12    23 1   
    24    12    30 1   
    25    13    14 1   
    26    13    19 1   
    27    13    27 1   
    28    13    33 1   
    29    14    51 1   
    30    14    52 1   
    31    15    20 1   
    32    15    35 1   
    33    15    53 1   
    34    18    21 1   
    35    18    24 1   
    36    18    29 1   
    37    18    43 1   
    38    20    21 1   
    39    20    28 1   
    40    20    54 1   
    41    24    25 1   
    42    24    31 2   
    43    25    26 1   
    44    25    32 1   
    45    28    29 1   
    46    28    34 1   
    47    28    55 1   
    48    31    36 1   
    49    31    56 1   
    50    34    35 1   
    51    34    39 1   
    52    34    57 1   
    53    36    37 2   
    54    36    41 1   
    55    37    38 1   
    56    37    42 1   
    57    38    61 1   
    58    39    40 1   
    59    39    58 1   
    60    39    59 1   
    61    41    43 2   
    62    41    60 1   
    63    43    44 1   
    64    44    45 1   
    65    44    46 1   
@<TRIPOS>SUBSTRUCTURE
     1 DL5         1 TEMP              0 ****  ****    0 ROOT
