@<TRIPOS>MOLECULE
DL5
   61    65     1     0     0
SMALL
No Charge or Current Charge


@<TRIPOS>ATOM
      1 N1          -3.7360     5.8860    -1.3840 nb         1 DL5      -0.342000
      2 C2          -4.2040     4.6190    -1.2760 ca         1 DL5       0.126900
      3 N3          -3.5140     3.5360    -0.8460 nb         1 DL5      -0.177000
      4 C4          -2.2290     3.7510    -0.4930 ca         1 DL5       0.083500
      5 C5          -1.6610     4.9990    -0.5610 ca         1 DL5      -0.078600
      6 C6          -2.4570     6.0710    -1.0260 ca         1 DL5       0.417900
      7 N6          -1.9960     7.3460    -1.1260 nv         1 DL5      -1.090900
      8 N7          -0.3410     5.0070    -0.1270 nc         1 DL5      -0.590100
      9 C8          -0.1430     3.7110     0.2000 cd         1 DL5       0.481700
     10 N9          -1.2690     2.8910    -0.0200 na         1 DL5      -0.298300
     11 PA           3.4360     1.3310    -0.9700 p5         1 DL5       1.462800
     12 PB           4.4120     0.3250     1.2520 p5         1 DL5       1.437400
     13 PG           3.6890    -2.4450     1.6850 p5         1 DL5       1.132500
     14 C01          3.6840    -0.8210     2.4070 c3         1 DL5      -0.439400
     15 C1          -1.4020     1.4740     0.3290 c5         1 DL5       0.310300
     16 O1A          4.3970     2.4650    -0.8500 o          1 DL5      -0.861000
     17 O1B          5.5590    -0.2640     0.4990 o          1 DL5      -0.761000
     18 C1F         -2.7210    -1.6170    -0.0200 c5         1 DL5       0.569400
     19 O1G          5.0780    -2.9790     1.7510 o          1 DL5      -0.717500
     20 C7          -2.1200     0.5490    -0.7200 c5         1 DL5       0.122300
     21 O2          -3.1310    -0.2350    -0.0290 os         1 DL5      -0.449000
     22 O2A          3.8060     0.3880    -2.0650 o          1 DL5      -0.861000
     23 O2B          4.7900     1.5230     2.0630 o          1 DL5      -0.761000
     24 C2F         -3.4880    -2.3830    -1.1160 c2         1 DL5      -0.299800
     25 N2F         -3.3540    -2.0380    -2.5200 no         1 DL5       0.691100
     26 O2F         -3.7750    -0.9380    -2.8900 o          1 DL5      -0.466500
     27 O2G          2.8070    -3.2650     2.5630 o          1 DL5      -0.717500
     28 C3          -1.0320    -0.4770    -1.1310 c5         1 DL5       0.121300
     29 O3          -1.3140    -1.6340    -0.3170 os         1 DL5      -0.460000
     30 O3A          3.1180     0.6160     0.3960 os         1 DL5      -0.697800
     31 C3F         -4.2720    -3.4300    -0.7380 ce         1 DL5      -0.177100
     32 O3F         -3.0300    -2.9420    -3.2980 o          1 DL5      -0.466500
     33 O3G          3.1660    -2.4160     0.2920 o          1 DL5      -0.717500
     34 C9           0.2960     0.1790    -0.6720 c5         1 DL5       0.140300
     35 O4          -0.0920     0.8960     0.5290 os         1 DL5      -0.401000
     36 C4F         -4.4320    -3.8670     0.6530 ce         1 DL5       0.144900
     37 N4F         -5.2870    -4.9580     0.9700 nh         1 DL5       0.230300
     38 O4F         -5.3010    -5.4030     2.2900 oh         1 DL5      -0.584000
     39 C10          0.8890     1.1380    -1.7550 c3         1 DL5       0.224600
     40 O5           1.9640     1.9380    -1.2330 os         1 DL5      -0.576400
     41 C5F         -3.6610    -3.1680     1.6880 ce         1 DL5      -0.177100
     42 O5F         -6.0030    -5.5160     0.0880 o          1 DL5      -0.611000
     43 C6F         -2.8490    -2.1090     1.4220 c2         1 DL5      -0.299800
     44 N6F         -2.0660    -1.4770     2.4660 no         1 DL5       0.691100
     45 O6F         -2.4520    -0.3760     2.8720 o          1 DL5      -0.466500
     46 O7F         -1.3110    -2.2090     3.1160 o          1 DL5      -0.466500
     47 H2          -5.2410     4.4540    -1.5630 h5         1 DL5       0.017100
     48 HN6         -1.1150     7.5510    -0.6600 hn         1 DL5       0.487500
     49 HN6A        -2.6750     8.1010    -1.1790 hn         1 DL5       0.487500
     50 H8           0.7750     3.3010     0.6090 h5         1 DL5       0.166800
     51 H01          4.2770    -0.8290     3.3210 hc         1 DL5       0.101200
     52 H01A         2.6600    -0.5130     2.6200 hc         1 DL5       0.101200
     53 H1          -1.9550     1.4710     1.2750 h2         1 DL5       0.100700
     54 H6          -2.5550     1.0950    -1.5670 h1         1 DL5       0.090700
     55 H3          -1.0470    -0.7400    -2.1980 h1         1 DL5       0.087700
     56 H3F         -4.8190    -4.0000    -1.4910 ha         1 DL5       0.207000
     57 H4           1.0450    -0.5830    -0.4210 h1         1 DL5       0.102700
     58 H5           1.2310     0.5370    -2.6070 h1         1 DL5       0.011200
     59 H5'A         0.0960     1.7940    -2.1340 h1         1 DL5       0.011200
     60 H5F         -3.7510    -3.5310     2.7130 ha         1 DL5       0.207000
     61 H4F         -4.6340    -6.1150     2.1950 ho         1 DL5       0.442000
@<TRIPOS>BOND
     1     1     2 ar  
     2     1     6 ar  
     3     2     3 ar  
     4     2    47 1   
     5     3     4 ar  
     6     4     5 ar  
     7     4    10 1   
     8     5     6 ar  
     9     5     8 1   
    10     6     7 1   
    11     7    48 1   
    12     7    49 1   
    13     8     9 2   
    14     9    10 1   
    15     9    50 1   
    16    10    15 1   
    17    11    16 1   
    18    11    22 1   
    19    11    30 1   
    20    11    40 1   
    21    12    14 1   
    22    12    17 1   
    23    12    23 1   
    24    12    30 1   
    25    13    14 1   
    26    13    19 1   
    27    13    27 1   
    28    13    33 1   
    29    14    51 1   
    30    14    52 1   
    31    15    20 1   
    32    15    35 1   
    33    15    53 1   
    34    18    21 1   
    35    18    24 1   
    36    18    29 1   
    37    18    43 1   
    38    20    21 1   
    39    20    28 1   
    40    20    54 1   
    41    24    25 1   
    42    24    31 2   
    43    25    26 1   
    44    25    32 1   
    45    28    29 1   
    46    28    34 1   
    47    28    55 1   
    48    31    36 1   
    49    31    56 1   
    50    34    35 1   
    51    34    39 1   
    52    34    57 1   
    53    36    37 2   
    54    36    41 1   
    55    37    38 1   
    56    37    42 1   
    57    38    61 1   
    58    39    40 1   
    59    39    58 1   
    60    39    59 1   
    61    41    43 2   
    62    41    60 1   
    63    43    44 1   
    64    44    45 1   
    65    44    46 1   
@<TRIPOS>SUBSTRUCTURE
     1 DL5         1 TEMP              0 ****  ****    0 ROOT
