@<TRIPOS>MOLECULE
DL6
   32    32     1     0     0
SMALL
bcc


@<TRIPOS>ATOM
      1 O6          -1.2650     3.4870     0.0680 oh         1 DL6      -0.585800
      2 C6          -2.2750     2.5830     0.4460 c3         1 DL6       0.149400
      3 C5          -1.9450     1.2180    -0.1190 c6         1 DL6       0.156100
      4 C4          -3.0550     0.2030     0.1570 c6         1 DL6       0.120100
      5 O4          -4.2160     0.6340    -0.5080 oh         1 DL6      -0.592800
      6 C3          -2.6220    -1.1750    -0.3280 c6         1 DL6       0.116100
      7 O3          -3.6300    -2.0870     0.0350 oh         1 DL6      -0.603800
      8 C2          -1.2710    -1.5560     0.2620 c6         1 DL6       0.076100
      9 O2          -0.8740    -2.7680    -0.3280 oh         1 DL6      -0.590800
     10 C1          -0.2670    -0.4390    -0.0310 c6         1 DL6       0.276500
     11 N1           0.9910    -0.7230     0.5800 ns         1 DL6      -0.569900
     12 C7           2.1830    -0.4520     0.0050 c          1 DL6       0.659100
     13 C8           3.3760    -0.6710     0.9260 c3         1 DL6       0.072800
     14 N2           4.6110    -0.8490     0.1890 n2         1 DL6      -0.431200
     15 N3           5.0290     0.1220    -0.4200 n1         1 DL6       0.243000
     16 N4           5.5240     0.9430    -1.0040 n1         1 DL6      -0.037000
     17 O7           2.3240    -0.0470    -1.1310 o          1 DL6      -0.574100
     18 O5          -0.7400     0.7840     0.4790 os         1 DL6      -0.416600
     19 HO6         -1.5220     4.3620     0.3720 ho         1 DL6       0.405000
     20 H61         -2.3650     2.5030     1.5380 h1         1 DL6       0.035700
     21 H62         -3.2540     2.8880     0.0630 h1         1 DL6       0.035700
     22 H5          -1.8140     1.3040    -1.2110 h1         1 DL6       0.068700
     23 H4          -3.2160     0.1550     1.2460 h1         1 DL6       0.051700
     24 HO4         -4.9140    -0.0070    -0.3390 ho         1 DL6       0.427000
     25 H3          -2.5120    -1.1270    -1.4230 h1         1 DL6       0.059700
     26 HO3         -3.4710    -2.9180    -0.4230 ho         1 DL6       0.427000
     27 H2          -1.3760    -1.6550     1.3530 h1         1 DL6       0.049700
     28 HO2         -0.1550    -3.1460     0.1880 ho         1 DL6       0.417000
     29 H1          -0.1140    -0.3710    -1.1150 h2         1 DL6       0.090700
     30 HN1          0.9830    -1.0090     1.5490 hn         1 DL6       0.312500
     31 H81          3.4290     0.1770     1.6180 h1         1 DL6       0.076200
     32 H82          3.2420    -1.5670     1.5310 h1         1 DL6       0.076200
@<TRIPOS>BOND
     1     1     2 1   
     2     1    19 1   
     3     2     3 1   
     4     2    20 1   
     5     2    21 1   
     6     3     4 1   
     7     3    18 1   
     8     3    22 1   
     9     4     5 1   
    10     4     6 1   
    11     4    23 1   
    12     5    24 1   
    13     6     7 1   
    14     6     8 1   
    15     6    25 1   
    16     7    26 1   
    17     8     9 1   
    18     8    10 1   
    19     8    27 1   
    20     9    28 1   
    21    10    11 1   
    22    10    18 1   
    23    10    29 1   
    24    11    12 1   
    25    11    30 1   
    26    12    13 1   
    27    12    17 2   
    28    13    14 1   
    29    13    31 1   
    30    13    32 1   
    31    14    15 1   
    32    15    16 3   
@<TRIPOS>SUBSTRUCTURE
     1 DL6         1 TEMP              0 ****  ****    0 ROOT
