@<TRIPOS>MOLECULE
DL6
   32    32     1     0     0
SMALL
No Charge or Current Charge


@<TRIPOS>ATOM
      1 O6          -0.9570     3.5320    -0.1290 oh         1 DL6      -0.708000
      2 C6          -2.0530     2.6780     0.2620 c3         1 DL6       0.172600
      3 C5          -1.9020     1.2010    -0.2360 c6         1 DL6       0.179300
      4 C4          -3.0750     0.2900     0.2450 c6         1 DL6       0.143300
      5 O4          -4.3510     0.7260    -0.2590 oh         1 DL6      -0.715000
      6 C3          -2.8040    -1.1730    -0.2100 c6         1 DL6       0.139300
      7 O3          -3.8330    -2.0570     0.2670 oh         1 DL6      -0.666000
      8 C2          -1.4120    -1.6520     0.2920 c6         1 DL6       0.099300
      9 O2          -1.1720    -3.0060    -0.1610 oh         1 DL6      -0.713000
     10 C1          -0.3200    -0.6490    -0.2120 c6         1 DL6       0.299700
     11 N1           0.9950    -0.9610     0.3380 ns         1 DL6      -0.502900
     12 C7           2.1880    -0.5320    -0.1990 c          1 DL6       0.592100
     13 C8           3.4370    -0.8420     0.6710 c3         1 DL6       0.072800
     14 N2           4.7260    -0.4120     0.0780 n2         1 DL6      -0.431200
     15 N3           5.0080     0.7950     0.1790 n1         1 DL6       0.243000
     16 N4           5.3100     1.8910     0.1370 n1         1 DL6      -0.037000
     17 O7           2.2360     0.0330    -1.2860 o          1 DL6      -0.574100
     18 O5          -0.6390     0.6750     0.2570 os         1 DL6      -0.463000
     19 HO6         -1.1160     4.4110     0.2870 ho         1 DL6       0.504000
     20 H61         -2.1440     2.6590     1.3560 h1         1 DL6       0.035700
     21 H62         -2.9960     3.0790    -0.1350 h1         1 DL6       0.035700
     22 H5          -1.8760     1.2140    -1.3360 h1         1 DL6       0.068700
     23 H4          -3.0880     0.3090     1.3460 h1         1 DL6       0.051700
     24 HO4         -4.9440    -0.0580    -0.1560 ho         1 DL6       0.526000
     25 H3          -2.7870    -1.1900    -1.3110 h1         1 DL6       0.059700
     26 HO3         -3.4270    -2.9550     0.2210 ho         1 DL6       0.466000
     27 H2          -1.4150    -1.6230     1.3920 h1         1 DL6       0.049700
     28 HO2         -0.2510    -3.2480     0.0980 ho         1 DL6       0.516000
     29 H1          -0.2740    -0.6610    -1.3140 h2         1 DL6       0.090700
     30 HN1          1.0350    -1.3840     1.2560 hn         1 DL6       0.312500
     31 H81          3.2750    -0.3690     1.6480 h1         1 DL6       0.076200
     32 H82          3.4440    -1.9260     0.8400 h1         1 DL6       0.076200
@<TRIPOS>BOND
     1     1     2 1   
     2     1    19 1   
     3     2     3 1   
     4     2    20 1   
     5     2    21 1   
     6     3     4 1   
     7     3    18 1   
     8     3    22 1   
     9     4     5 1   
    10     4     6 1   
    11     4    23 1   
    12     5    24 1   
    13     6     7 1   
    14     6     8 1   
    15     6    25 1   
    16     7    26 1   
    17     8     9 1   
    18     8    10 1   
    19     8    27 1   
    20     9    28 1   
    21    10    11 1   
    22    10    18 1   
    23    10    29 1   
    24    11    12 1   
    25    11    30 1   
    26    12    13 1   
    27    12    17 2   
    28    13    14 1   
    29    13    31 1   
    30    13    32 1   
    31    14    15 1   
    32    15    16 3   
@<TRIPOS>SUBSTRUCTURE
     1 DL6         1 TEMP              0 ****  ****    0 ROOT
