@<TRIPOS>MOLECULE
DL7
   71    74     1     0     0
SMALL
bcc


@<TRIPOS>ATOM
      1 O3          -8.4440    -1.0870     1.9770 o          1 DL7      -0.843800
      2 C27         -8.7250    -0.3030     1.0490 c          1 DL7       0.929600
      3 O2          -9.8740     0.0780     0.7380 o          1 DL7      -0.843800
      4 C25         -7.5670     0.2630     0.1920 c3         1 DL7      -0.191700
      5 C26         -7.8340    -0.0190    -1.2870 c3         1 DL7      -0.060100
      6 C24         -6.1910    -0.2280     0.6300 c3         1 DL7      -0.053400
      7 C23         -5.0180     0.4840    -0.0380 c3         1 DL7      -0.078400
      8 C22         -3.6810    -0.0260     0.4890 c3         1 DL7      -0.078400
      9 C20         -2.4270     0.5760    -0.1600 c3         1 DL7      -0.049700
     10 C21         -2.3450     2.0730     0.1260 c3         1 DL7      -0.083100
     11 C17         -1.1900    -0.1990     0.3180 c5         1 DL7      -0.051700
     12 C16         -1.2520    -1.7010    -0.0800 c5         1 DL7      -0.077400
     13 C15          0.1960    -2.1670    -0.3250 c5         1 DL7      -0.071400
     14 C14          1.0290    -1.0130     0.2100 c5         1 DL7      -0.036500
     15 C8           2.4870    -0.9220    -0.1140 c2         1 DL7      -0.082400
     16 C7           3.1540    -1.8790    -0.7580 c2         1 DL7      -0.187200
     17 C6           4.6420    -1.8900    -0.9010 c6         1 DL7      -0.031200
     18 C13          0.2140     0.2440    -0.1550 c5         1 DL7      -0.035000
     19 C18          0.2310     0.4890    -1.6660 c3         1 DL7      -0.075100
     20 C12          0.8470     1.4110     0.6030 c6         1 DL7      -0.062400
     21 C11          2.3290     1.5660     0.2590 c6         1 DL7      -0.069400
     22 C9           3.1650     0.2950     0.4840 c6         1 DL7      -0.015500
     23 C10          4.6390     0.4560     0.0340 c6         1 DL7      -0.034000
     24 C1           5.3670     1.3720     1.0280 c6         1 DL7      -0.063400
     25 C19          4.7310     1.0340    -1.3840 c3         1 DL7      -0.081100
     26 C5           5.2950    -0.9380     0.0910 c6         1 DL7      -0.047700
     27 C4           6.8150    -0.9060    -0.1110 c6         1 DL7      -0.182400
     28 C3           7.5020     0.0890     0.7840 c          1 DL7       0.578100
     29 O1           8.4850    -0.1860     1.4390 o          1 DL7      -0.529100
     30 C2           6.8760     1.4570     0.7870 c6         1 DL7      -0.184400
     31 H25         -7.5890     1.3550     0.3230 hc         1 DL7       0.023700
     32 H26         -7.8240    -1.0940    -1.4870 hc         1 DL7       0.011367
     33 H26A        -8.8060     0.3670    -1.5880 hc         1 DL7       0.011367
     34 H26B        -7.0830     0.4380    -1.9330 hc         1 DL7       0.011367
     35 H24         -6.0950    -0.1050     1.7120 hc         1 DL7       0.040200
     36 H24A        -6.1080    -1.3060     0.4460 hc         1 DL7       0.040200
     37 H23         -5.0500     0.3410    -1.1230 hc         1 DL7       0.025700
     38 H23A        -5.1170     1.5610     0.1280 hc         1 DL7       0.025700
     39 H22         -3.6300     0.1400     1.5730 hc         1 DL7       0.035700
     40 H22A        -3.6710    -1.1120     0.3570 hc         1 DL7       0.035700
     41 H20         -2.5140     0.4370    -1.2470 hc         1 DL7       0.042700
     42 H21         -1.5520     2.5590    -0.4410 hc         1 DL7       0.029033
     43 H21A        -3.2740     2.5800    -0.1340 hc         1 DL7       0.029033
     44 H21B        -2.1540     2.2570     1.1870 hc         1 DL7       0.029033
     45 H17         -1.1800    -0.1350     1.4160 hc         1 DL7       0.043700
     46 H16         -1.7290    -2.2930     0.7010 hc         1 DL7       0.048700
     47 H16A        -1.8610    -1.8300    -0.9780 hc         1 DL7       0.048700
     48 H15          0.4260    -3.1100     0.1720 hc         1 DL7       0.039200
     49 H15A         0.3830    -2.3210    -1.3910 hc         1 DL7       0.039200
     50 H14          0.9800    -1.0740     1.3100 hc         1 DL7       0.052700
     51 H7           2.6160    -2.7340    -1.1550 ha         1 DL7       0.127000
     52 H6           5.0130    -2.9060    -0.7320 hc         1 DL7       0.043200
     53 H6A          4.9430    -1.6400    -1.9260 hc         1 DL7       0.043200
     54 H18         -0.3180    -0.2800    -2.2110 hc         1 DL7       0.032033
     55 H18A        -0.2250     1.4490    -1.9150 hc         1 DL7       0.032033
     56 H18B         1.2460     0.5000    -2.0650 hc         1 DL7       0.032033
     57 H12          0.3450     2.3550     0.3850 hc         1 DL7       0.043700
     58 H12A         0.7310     1.2380     1.6790 hc         1 DL7       0.043700
     59 H11          2.4140     1.8830    -0.7820 hc         1 DL7       0.037200
     60 H11A         2.7470     2.3820     0.8530 hc         1 DL7       0.037200
     61 H9           3.1800     0.1230     1.5720 hc         1 DL7       0.050700
     62 H1           4.9560     2.3820     0.9900 hc         1 DL7       0.047200
     63 H1A          5.1930     1.0050     2.0460 hc         1 DL7       0.047200
     64 H19          4.5490     2.1100    -1.3900 hc         1 DL7       0.034367
     65 H19A         5.7170     0.8770    -1.8220 hc         1 DL7       0.034367
     66 H19B         4.0040     0.5760    -2.0570 hc         1 DL7       0.034367
     67 H5           5.1080    -1.3310     1.0990 hc         1 DL7       0.054700
     68 H4           7.2390    -1.9000     0.0440 hc         1 DL7       0.064200
     69 H4A          7.0420    -0.6190    -1.1450 hc         1 DL7       0.064200
     70 H2           7.0680     1.9130    -0.1900 hc         1 DL7       0.063700
     71 H2A          7.3560     2.0870     1.5370 hc         1 DL7       0.063700
@<TRIPOS>BOND
     1     1     2 1   
     2     2     3 1   
     3     2     4 1   
     4     4     5 1   
     5     4     6 1   
     6     4    31 1   
     7     5    32 1   
     8     5    33 1   
     9     5    34 1   
    10     6     7 1   
    11     6    35 1   
    12     6    36 1   
    13     7     8 1   
    14     7    37 1   
    15     7    38 1   
    16     8     9 1   
    17     8    39 1   
    18     8    40 1   
    19     9    10 1   
    20     9    11 1   
    21     9    41 1   
    22    10    42 1   
    23    10    43 1   
    24    10    44 1   
    25    11    12 1   
    26    11    18 1   
    27    11    45 1   
    28    12    13 1   
    29    12    46 1   
    30    12    47 1   
    31    13    14 1   
    32    13    48 1   
    33    13    49 1   
    34    14    15 1   
    35    14    18 1   
    36    14    50 1   
    37    15    16 2   
    38    15    22 1   
    39    16    17 1   
    40    16    51 1   
    41    17    26 1   
    42    17    52 1   
    43    17    53 1   
    44    18    19 1   
    45    18    20 1   
    46    19    54 1   
    47    19    55 1   
    48    19    56 1   
    49    20    21 1   
    50    20    57 1   
    51    20    58 1   
    52    21    22 1   
    53    21    59 1   
    54    21    60 1   
    55    22    23 1   
    56    22    61 1   
    57    23    24 1   
    58    23    25 1   
    59    23    26 1   
    60    24    30 1   
    61    24    62 1   
    62    24    63 1   
    63    25    64 1   
    64    25    65 1   
    65    25    66 1   
    66    26    27 1   
    67    26    67 1   
    68    27    28 1   
    69    27    68 1   
    70    27    69 1   
    71    28    29 2   
    72    28    30 1   
    73    30    70 1   
    74    30    71 1   
@<TRIPOS>SUBSTRUCTURE
     1 DL7         1 TEMP              0 ****  ****    0 ROOT
