@<TRIPOS>MOLECULE
DL7
   71    74     1     0     0
SMALL
No Charge or Current Charge


@<TRIPOS>ATOM
      1 O3          -9.0670    -1.6010     0.7800 o          1 DL7      -0.738500
      2 C27         -8.8880    -0.3990     0.9130 c          1 DL7       0.719000
      3 O2          -9.5740     0.3030     1.6420 o          1 DL7      -0.738500
      4 C25         -7.7360     0.2740     0.1270 c3         1 DL7      -0.191700
      5 C26         -7.9790     0.1790    -1.4010 c3         1 DL7      -0.060100
      6 C24         -6.3570    -0.2960     0.5650 c3         1 DL7      -0.053400
      7 C23         -5.1340     0.4870     0.0290 c3         1 DL7      -0.078400
      8 C22         -3.7880    -0.0620     0.5670 c3         1 DL7      -0.078400
      9 C20         -2.4970     0.5580    -0.0620 c3         1 DL7      -0.049700
     10 C21         -2.3940     2.0680     0.2710 c3         1 DL7      -0.083100
     11 C17         -1.2050    -0.2690     0.3870 c5         1 DL7      -0.051700
     12 C16         -1.2530    -1.7710    -0.0990 c5         1 DL7      -0.077400
     13 C15          0.2270    -2.2160    -0.3170 c5         1 DL7      -0.071400
     14 C14          1.0140    -1.0650     0.3550 c5         1 DL7      -0.036500
     15 C8           2.5040    -0.9470    -0.0030 c2         1 DL7      -0.082400
     16 C7           3.1830    -1.9780    -0.5460 c2         1 DL7      -0.237200
     17 C6           4.6970    -1.9930    -0.7150 c6         1 DL7      -0.031200
     18 C13          0.2370     0.1990    -0.1360 c5         1 DL7      -0.035000
     19 C18          0.3320     0.4630    -1.7030 c3         1 DL7      -0.075100
     20 C12          0.8560     1.4250     0.6140 c6         1 DL7      -0.062400
     21 C11          2.3590     1.6250     0.2760 c6         1 DL7      -0.069400
     22 C9           3.2290     0.3390     0.4910 c6         1 DL7      -0.015500
     23 C10          4.7420     0.4960    -0.0110 c6         1 DL7      -0.034000
     24 C1           5.5010     1.5260     0.8920 c6         1 DL7      -0.063400
     25 C19          4.7780     0.9700    -1.5110 c3         1 DL7      -0.081100
     26 C5           5.4080    -0.9190     0.1560 c6         1 DL7      -0.047700
     27 C4           6.9460    -0.9250    -0.0950 c6         1 DL7      -0.182400
     28 C3           7.6660     0.1800     0.6880 c          1 DL7       0.578100
     29 O1           8.6590    -0.0500     1.3660 o          1 DL7      -0.529100
     30 C2           7.0300     1.5730     0.6290 c6         1 DL7      -0.184400
     31 H25         -7.7450     1.3410     0.3860 hc         1 DL7       0.023700
     32 H26         -7.8970    -0.8580    -1.7480 hc         1 DL7       0.011367
     33 H26A        -8.9810     0.5460    -1.6510 hc         1 DL7       0.011367
     34 H26B        -7.2550     0.7870    -1.9560 hc         1 DL7       0.011367
     35 H24         -6.3140    -0.2930     1.6620 hc         1 DL7       0.040200
     36 H24A        -6.2800    -1.3450     0.2530 hc         1 DL7       0.040200
     37 H23         -5.1210     0.4400    -1.0670 hc         1 DL7       0.025700
     38 H23A        -5.2510     1.5400     0.3090 hc         1 DL7       0.025700
     39 H22         -3.7560     0.0700     1.6560 hc         1 DL7       0.035700
     40 H22A        -3.7910    -1.1430     0.3910 hc         1 DL7       0.035700
     41 H20         -2.6550     0.5160    -1.1610 hc         1 DL7       0.042700
     42 H21         -1.6730     2.5580    -0.3890 hc         1 DL7       0.029033
     43 H21A        -3.3410     2.5920     0.1110 hc         1 DL7       0.029033
     44 H21B        -2.0910     2.2230     1.3140 hc         1 DL7       0.029033
     45 H17         -1.2130    -0.2470     1.4840 hc         1 DL7       0.043700
     46 H16         -1.7510    -2.4050     0.6430 hc         1 DL7       0.048700
     47 H16A        -1.8200    -1.8790    -1.0310 hc         1 DL7       0.048700
     48 H15          0.4360    -3.1870     0.1480 hc         1 DL7       0.039200
     49 H15A         0.4570    -2.3150    -1.3850 hc         1 DL7       0.039200
     50 H14          0.9400    -1.1650     1.4460 hc         1 DL7       0.052700
     51 H7           2.6870    -2.9070    -0.8250 ha         1 DL7       0.177000
     52 H6           5.0760    -2.9860    -0.4380 hc         1 DL7       0.043200
     53 H6A          4.9440    -1.8610    -1.7770 hc         1 DL7       0.043200
     54 H18         -0.2470    -0.2670    -2.2800 hc         1 DL7       0.032033
     55 H18A        -0.0700     1.4500    -1.9590 hc         1 DL7       0.032033
     56 H18B         1.3610     0.4180    -2.0750 hc         1 DL7       0.032033
     57 H12          0.3300     2.3530     0.3710 hc         1 DL7       0.043700
     58 H12A         0.7420     1.2880     1.6980 hc         1 DL7       0.043700
     59 H11          2.4310     1.9800    -0.7580 hc         1 DL7       0.037200
     60 H11A         2.7500     2.4440     0.8940 hc         1 DL7       0.037200
     61 H9           3.2760     0.2090     1.5820 hc         1 DL7       0.050700
     62 H1           5.0860     2.5340     0.7560 hc         1 DL7       0.047200
     63 H1A          5.3410     1.2770     1.9510 hc         1 DL7       0.047200
     64 H19          4.5070     2.0270    -1.6070 hc         1 DL7       0.034367
     65 H19A         5.7670     0.8690    -1.9670 hc         1 DL7       0.034367
     66 H19B         4.0780     0.4000    -2.1330 hc         1 DL7       0.034367
     67 H5           5.2680    -1.2200     1.2050 hc         1 DL7       0.054700
     68 H4           7.4010    -1.8990     0.1250 hc         1 DL7       0.064200
     69 H4A          7.1000    -0.7040    -1.1580 hc         1 DL7       0.064200
     70 H2           7.1560     1.9330    -0.4000 hc         1 DL7       0.063700
     71 H2A          7.5510     2.2600     1.3090 hc         1 DL7       0.063700
@<TRIPOS>BOND
     1     1     2 1   
     2     2     3 1   
     3     2     4 1   
     4     4     5 1   
     5     4     6 1   
     6     4    31 1   
     7     5    32 1   
     8     5    33 1   
     9     5    34 1   
    10     6     7 1   
    11     6    35 1   
    12     6    36 1   
    13     7     8 1   
    14     7    37 1   
    15     7    38 1   
    16     8     9 1   
    17     8    39 1   
    18     8    40 1   
    19     9    10 1   
    20     9    11 1   
    21     9    41 1   
    22    10    42 1   
    23    10    43 1   
    24    10    44 1   
    25    11    12 1   
    26    11    18 1   
    27    11    45 1   
    28    12    13 1   
    29    12    46 1   
    30    12    47 1   
    31    13    14 1   
    32    13    48 1   
    33    13    49 1   
    34    14    15 1   
    35    14    18 1   
    36    14    50 1   
    37    15    16 2   
    38    15    22 1   
    39    16    17 1   
    40    16    51 1   
    41    17    26 1   
    42    17    52 1   
    43    17    53 1   
    44    18    19 1   
    45    18    20 1   
    46    19    54 1   
    47    19    55 1   
    48    19    56 1   
    49    20    21 1   
    50    20    57 1   
    51    20    58 1   
    52    21    22 1   
    53    21    59 1   
    54    21    60 1   
    55    22    23 1   
    56    22    61 1   
    57    23    24 1   
    58    23    25 1   
    59    23    26 1   
    60    24    30 1   
    61    24    62 1   
    62    24    63 1   
    63    25    64 1   
    64    25    65 1   
    65    25    66 1   
    66    26    27 1   
    67    26    67 1   
    68    27    28 1   
    69    27    68 1   
    70    27    69 1   
    71    28    29 2   
    72    28    30 1   
    73    30    70 1   
    74    30    71 1   
@<TRIPOS>SUBSTRUCTURE
     1 DL7         1 TEMP              0 ****  ****    0 ROOT
