@<TRIPOS>MOLECULE
DL8
   46    48     1     0     0
SMALL
No Charge or Current Charge


@<TRIPOS>ATOM
      1 C12          6.4830    -0.3790    -0.7630 ca         1 DL8      -0.091000
      2 C13          7.6570     0.3850    -0.8800 ca         1 DL8      -0.113500
      3 C14          7.7770     1.6030    -0.1930 ca         1 DL8      -0.106000
      4 C15          6.7210     2.0530     0.6150 ca         1 DL8      -0.113500
      5 C16          5.5460     1.2910     0.7330 ca         1 DL8      -0.091000
      6 C11          5.4060     0.0670     0.0380 ca         1 DL8      -0.106500
      7 C10          4.1900    -0.7570     0.1600 cc         1 DL8       0.264500
      8 C9           3.0570    -0.3180     0.7710 cd         1 DL8      -0.176000
      9 N4           4.0430    -2.0240    -0.3230 nc         1 DL8      -0.347000
     10 N3           2.8300    -2.4240    -0.0320 nd         1 DL8      -0.200800
     11 N2           2.2070    -1.3940     0.6330 na         1 DL8       0.128800
     12 C8           0.8250    -1.5120     1.1170 c3         1 DL8      -0.011400
     13 C7          -0.2160    -0.9210     0.1630 c          1 DL8       0.598100
     14 O7           0.0700    -0.2820    -0.8410 o          1 DL8      -0.547100
     15 N1          -1.5220    -1.1740     0.5130 ns         1 DL8      -0.503900
     16 C1          -2.6830    -0.5880    -0.1480 c6         1 DL8       0.301700
     17 O5          -2.8260     0.7330     0.4070 os         1 DL8      -0.463000
     18 C5          -3.9070     1.5160    -0.1700 c6         1 DL8       0.179300
     19 C6          -3.8640     2.9540     0.4480 c3         1 DL8       0.172600
     20 O6          -2.5960     3.6200     0.2650 oh         1 DL8      -0.709000
     21 C4          -5.2710     0.8000     0.0890 c6         1 DL8       0.143300
     22 O4          -6.3790     1.4990    -0.5090 oh         1 DL8      -0.715000
     23 C3          -5.2010    -0.6490    -0.4720 c6         1 DL8       0.139300
     24 O3          -6.4180    -1.3640    -0.1980 oh         1 DL8      -0.666000
     25 C2          -3.9870    -1.4100     0.1330 c6         1 DL8       0.098300
     26 O2          -3.9290    -2.7480    -0.4190 oh         1 DL8      -0.712000
     27 H12          6.4140    -1.3200    -1.3050 ha         1 DL8       0.119000
     28 H13          8.4750     0.0310    -1.5040 ha         1 DL8       0.112000
     29 H14          8.6860     2.1930    -0.2830 ha         1 DL8       0.112000
     30 H15          6.8140     2.9940     1.1530 ha         1 DL8       0.112000
     31 H16          4.7510     1.6640     1.3740 ha         1 DL8       0.119000
     32 H9           2.7890     0.6110     1.2540 h4         1 DL8       0.171000
     33 H81          0.5870    -2.5710     1.2710 h1         1 DL8       0.087200
     34 H82          0.7350    -0.9970     2.0800 h1         1 DL8       0.087200
     35 HN1         -1.6730    -1.6720     1.3810 hn         1 DL8       0.313500
     36 H1          -2.5010    -0.5270    -1.2330 h2         1 DL8       0.092700
     37 H5          -3.7420     1.6050    -1.2540 h1         1 DL8       0.068700
     38 H61         -4.6660     3.5480    -0.0100 h1         1 DL8       0.036200
     39 H62         -4.0940     2.8700     1.5190 h1         1 DL8       0.036200
     40 HO6         -2.6530     4.4810     0.7420 ho         1 DL8       0.505000
     41 H4          -5.4190     0.7390     1.1780 h1         1 DL8       0.051700
     42 HO4         -7.1070     0.8300    -0.5470 ho         1 DL8       0.527000
     43 H3          -5.0480    -0.5870    -1.5610 h1         1 DL8       0.060700
     44 HO3         -6.1710    -2.3140    -0.2870 ho         1 DL8       0.468000
     45 H2          -4.1240    -1.4640     1.2240 h1         1 DL8       0.049700
     46 HO2         -3.1110    -3.1780    -0.0740 ho         1 DL8       0.517000
@<TRIPOS>BOND
     1     1     2 ar  
     2     1     6 ar  
     3     1    27 1   
     4     2     3 ar  
     5     2    28 1   
     6     3     4 ar  
     7     3    29 1   
     8     4     5 ar  
     9     4    30 1   
    10     5     6 ar  
    11     5    31 1   
    12     6     7 1   
    13     7     8 2   
    14     7     9 1   
    15     8    11 1   
    16     8    32 1   
    17     9    10 2   
    18    10    11 1   
    19    11    12 1   
    20    12    13 1   
    21    12    33 1   
    22    12    34 1   
    23    13    14 2   
    24    13    15 1   
    25    15    16 1   
    26    15    35 1   
    27    16    17 1   
    28    16    25 1   
    29    16    36 1   
    30    17    18 1   
    31    18    19 1   
    32    18    21 1   
    33    18    37 1   
    34    19    20 1   
    35    19    38 1   
    36    19    39 1   
    37    20    40 1   
    38    21    22 1   
    39    21    23 1   
    40    21    41 1   
    41    22    42 1   
    42    23    24 1   
    43    23    25 1   
    44    23    43 1   
    45    24    44 1   
    46    25    26 1   
    47    25    45 1   
    48    26    46 1   
@<TRIPOS>SUBSTRUCTURE
     1 DL8         1 TEMP              0 ****  ****    0 ROOT
