@<TRIPOS>MOLECULE
DL8
   46    48     1     0     0
SMALL
bcc


@<TRIPOS>ATOM
      1 C12          6.2840    -0.7720    -0.8370 ca         1 DL8      -0.109000
      2 C13          7.5190    -0.2470    -1.1820 ca         1 DL8      -0.131500
      3 C14          7.9130     0.9960    -0.7030 ca         1 DL8      -0.124000
      4 C15          7.0590     1.7100     0.1270 ca         1 DL8      -0.131500
      5 C16          5.8230     1.1870     0.4730 ca         1 DL8      -0.109000
      6 C11          5.4180    -0.0600    -0.0050 ca         1 DL8      -0.106500
      7 C10          4.1150    -0.6130     0.3550 cc         1 DL8       0.329800
      8 C9           3.0810    -0.0480     1.0640 cd         1 DL8      -0.208600
      9 N4           3.7270    -1.8620     0.0030 nc         1 DL8      -0.347000
     10 N3           2.5440    -2.0870     0.4470 nd         1 DL8      -0.200800
     11 N2           2.1450    -1.0070     1.0990 na         1 DL8       0.107400
     12 C8           0.8130    -0.9360     1.6300 c3         1 DL8      -0.040700
     13 C7          -0.1590    -0.4080     0.5820 c          1 DL8       0.665100
     14 O7           0.2220     0.2100    -0.3900 o          1 DL8      -0.547100
     15 N1          -1.4490    -0.6890     0.8590 ns         1 DL8      -0.570900
     16 C1          -2.5510    -0.2140     0.0860 c6         1 DL8       0.278500
     17 O5          -3.1140     0.8910     0.7480 os         1 DL8      -0.416600
     18 C5          -4.1660     1.5040     0.0290 c6         1 DL8       0.156100
     19 C6          -4.5980     2.7310     0.8040 c3         1 DL8       0.149400
     20 O6          -3.5240     3.6390     0.8530 oh         1 DL8      -0.586800
     21 C4          -5.3120     0.5090    -0.1540 c6         1 DL8       0.120100
     22 O4          -6.3150     1.1310    -0.9170 oh         1 DL8      -0.592800
     23 C3          -4.7910    -0.7470    -0.8430 c6         1 DL8       0.116100
     24 O3          -5.8570    -1.6620    -0.9150 oh         1 DL8      -0.603800
     25 C2          -3.5990    -1.3160    -0.0860 c6         1 DL8       0.075100
     26 O2          -3.0930    -2.3920    -0.8330 oh         1 DL8      -0.589800
     27 H12          5.9890    -1.7400    -1.2180 ha         1 DL8       0.137000
     28 H13          8.1770    -0.8110    -1.8310 ha         1 DL8       0.130000
     29 H14          8.8790     1.4040    -0.9740 ha         1 DL8       0.130000
     30 H15          7.3540     2.6790     0.5090 ha         1 DL8       0.130000
     31 H16          5.1740     1.7570     1.1270 ha         1 DL8       0.137000
     32 H9           2.9430     0.9130     1.5280 h4         1 DL8       0.189000
     33 H81          0.5250    -1.9250     1.9840 h1         1 DL8       0.087200
     34 H82          0.8090    -0.2650     2.4900 h1         1 DL8       0.087200
     35 HN1         -1.6590    -1.1810     1.7170 hn         1 DL8       0.313500
     36 H1          -2.1730     0.0780    -0.9020 h2         1 DL8       0.092700
     37 H5          -3.8100     1.8140    -0.9670 h1         1 DL8       0.068700
     38 H61         -5.4730     3.1640     0.3090 h1         1 DL8       0.036200
     39 H62         -4.9170     2.4200     1.8090 h1         1 DL8       0.036200
     40 HO6         -3.8200     4.4250     1.3200 ho         1 DL8       0.406000
     41 H4          -5.6900     0.2270     0.8420 h1         1 DL8       0.051700
     42 HO4         -7.0190     0.4900    -1.0640 ho         1 DL8       0.428000
     43 H3          -4.4490    -0.4620    -1.8510 h1         1 DL8       0.060700
     44 HO3         -5.6030    -2.3870    -1.4940 ho         1 DL8       0.429000
     45 H2          -3.9360    -1.6380     0.9110 h1         1 DL8       0.049700
     46 HO2         -2.4810    -2.8940    -0.2860 ho         1 DL8       0.418000
@<TRIPOS>BOND
     1     1     2 ar  
     2     1     6 ar  
     3     1    27 1   
     4     2     3 ar  
     5     2    28 1   
     6     3     4 ar  
     7     3    29 1   
     8     4     5 ar  
     9     4    30 1   
    10     5     6 ar  
    11     5    31 1   
    12     6     7 1   
    13     7     8 2   
    14     7     9 1   
    15     8    11 1   
    16     8    32 1   
    17     9    10 2   
    18    10    11 1   
    19    11    12 1   
    20    12    13 1   
    21    12    33 1   
    22    12    34 1   
    23    13    14 2   
    24    13    15 1   
    25    15    16 1   
    26    15    35 1   
    27    16    17 1   
    28    16    25 1   
    29    16    36 1   
    30    17    18 1   
    31    18    19 1   
    32    18    21 1   
    33    18    37 1   
    34    19    20 1   
    35    19    38 1   
    36    19    39 1   
    37    20    40 1   
    38    21    22 1   
    39    21    23 1   
    40    21    41 1   
    41    22    42 1   
    42    23    24 1   
    43    23    25 1   
    44    23    43 1   
    45    24    44 1   
    46    25    26 1   
    47    25    45 1   
    48    26    46 1   
@<TRIPOS>SUBSTRUCTURE
     1 DL8         1 TEMP              0 ****  ****    0 ROOT
