@<TRIPOS>MOLECULE
DL9
   69    73     1     0     0
SMALL
abcg2


@<TRIPOS>ATOM
      1 N1         -44.1070   -13.9140    -1.8210 n3         1 DL9      -0.713600
      2 C4         -42.3800   -11.2210   -10.5410 ce         1 DL9      -0.038400
      3 C5         -43.8000   -10.9190   -10.2300 ca         1 DL9      -0.054800
      4 C6         -44.1300   -10.0540    -9.1870 ca         1 DL9      -0.095000
      5 C7         -45.4530    -9.7480    -8.9060 ca         1 DL9      -0.113000
      6 C8         -46.4750   -10.3020    -9.6680 ca         1 DL9      -0.109000
      7 C10        -44.8330   -11.4520   -11.0010 ca         1 DL9      -0.095000
      8 C13        -39.2750   -10.8400   -10.2390 ca         1 DL9      -0.058000
      9 C15        -37.3210   -12.2390   -10.1530 ca         1 DL9       0.141100
     10 C17        -39.4800   -13.1130    -9.5470 ca         1 DL9      -0.058000
     11 C20        -43.5160   -13.4660    -6.8800 ca         1 DL9      -0.111000
     12 C21        -42.9190   -12.9850    -5.7190 ca         1 DL9      -0.073300
     13 C22        -41.8540   -12.0940    -5.8600 ca         1 DL9      -0.111000
     14 C24        -43.4240   -13.3920    -4.3590 c6         1 DL9      -0.009400
     15 C26        -42.6690   -13.9540    -2.0020 c6         1 DL9       0.178300
     16 C28        -44.0070   -12.2010    -3.5950 c6         1 DL9      -0.068900
     17 C1         -41.5720    -9.0560   -13.6640 c3         1 DL9       0.162600
     18 C12        -40.0920   -11.8890    -9.8180 ca         1 DL9      -0.085800
     19 C14        -37.9100   -11.0040   -10.4100 ca         1 DL9      -0.180500
     20 C16        -38.1170   -13.2970    -9.7190 ca         1 DL9      -0.180500
     21 C18        -42.0320   -12.1610    -8.2730 ca         1 DL9      -0.053800
     22 C19        -43.0830   -13.0630    -8.1350 ca         1 DL9      -0.094500
     23 C23        -41.4120   -11.6980    -7.1110 ca         1 DL9      -0.094500
     24 C25        -42.3410   -14.0630    -3.4960 c6         1 DL9      -0.068900
     25 C27        -44.6690   -12.6560    -2.2880 c6         1 DL9       0.178300
     26 C29        -44.5320   -14.2250    -0.4980 cx         1 DL9       0.111500
     27 C3         -41.9680   -10.9000   -11.9530 c3         1 DL9      -0.036200
     28 C30        -45.8700   -14.8710    -0.3290 cx         1 DL9      -0.125400
     29 C31        -44.6150   -15.6640    -0.1050 cx         1 DL9      -0.125400
     30 C9         -46.1590   -11.1540   -10.7170 ca         1 DL9      -0.113000
     31 O1         -42.4660    -9.6430   -14.5850 oh         1 DL9      -0.662000
     32 H8         -43.3400    -9.6130    -8.5920 ha         1 DL9       0.115500
     33 H9         -45.6850    -9.0740    -8.0920 ha         1 DL9       0.111000
     34 H10        -47.5080   -10.0660    -9.4480 ha         1 DL9       0.111000
     35 H12        -44.6070   -12.1230   -11.8210 ha         1 DL9       0.115500
     36 H13        -39.7080    -9.8650   -10.4220 ha         1 DL9       0.118000
     37 H17        -40.0770   -13.9470    -9.1980 ha         1 DL9       0.118000
     38 H19        -44.3350   -14.1720    -6.8050 ha         1 DL9       0.111000
     39 H20        -41.3580   -11.6980    -4.9810 ha         1 DL9       0.111000
     40 H22        -44.2310   -14.1160    -4.5100 hc         1 DL9       0.064700
     41 H25        -42.2730   -14.8200    -1.4700 h1         1 DL9       0.031700
     42 H26        -42.1760   -13.0700    -1.5640 h1         1 DL9       0.031700
     43 H29        -43.2050   -11.4860    -3.3900 hc         1 DL9       0.043950
     44 H30        -44.7360   -11.6710    -4.2100 hc         1 DL9       0.043950
     45 H2         -40.5440    -9.4110   -13.8210 h1         1 DL9       0.016700
     46 H3         -41.5480    -7.9630   -13.7720 h1         1 DL9       0.016700
     47 H14        -37.2980   -10.1700   -10.7300 ha         1 DL9       0.120000
     48 H16        -37.6750   -14.2640    -9.5080 ha         1 DL9       0.120000
     49 H18        -43.5670   -13.4600    -9.0190 ha         1 DL9       0.116500
     50 H5         -41.3420    -8.8700   -11.5660 hc         1 DL9       0.049200
     51 H4         -43.0090    -9.0050   -12.0700 hc         1 DL9       0.049200
     52 H21        -40.5820   -11.0060    -7.1880 ha         1 DL9       0.116500
     53 H24        -42.2520   -15.1110    -3.7880 hc         1 DL9       0.043950
     54 H23        -41.3650   -13.6070    -3.6810 hc         1 DL9       0.043950
     55 H28        -44.5590   -11.8610    -1.5330 h1         1 DL9       0.031700
     56 H27        -45.7420   -12.7980    -2.4400 h1         1 DL9       0.031700
     57 H31        -44.2370   -13.5230     0.2890 h1         1 DL9       0.053700
     58 H7         -42.6510   -11.4130   -12.6360 hc         1 DL9       0.058700
     59 H6         -40.9730   -11.2930   -12.1670 hc         1 DL9       0.058700
     60 H33        -46.4700   -14.5970     0.5300 hc         1 DL9       0.074200
     61 H32        -46.4350   -15.0780    -1.2290 hc         1 DL9       0.074200
     62 H34        -44.3460   -16.3970    -0.8550 hc         1 DL9       0.074200
     63 H35        -44.3480   -15.9350     0.9080 hc         1 DL9       0.074200
     64 H11        -46.9460   -11.5880   -11.3200 ha         1 DL9       0.111000
     65 H1         -42.1440    -9.4620   -15.4730 ho         1 DL9       0.440000
     66 H15        -35.6970   -13.2440   -10.1010 ho         1 DL9       0.465000
     67 C11        -41.5490   -11.7190    -9.6040 cf         1 DL9      -0.000400
     68 O2         -35.9900   -12.3550   -10.3300 oh         1 DL9      -0.534100
     69 C2         -42.0060    -9.4000   -12.2540 c3         1 DL9      -0.073400
@<TRIPOS>BOND
     1     1    15 1   
     2     1    25 1   
     3     1    26 1   
     4     2     3 1   
     5     2    27 1   
     6     2    67 2   
     7     3     4 ar  
     8     3     7 ar  
     9     4     5 ar  
    10     4    32 1   
    11     5     6 ar  
    12     5    33 1   
    13     6    30 ar  
    14     6    34 1   
    15     7    30 ar  
    16     7    35 1   
    17     8    18 ar  
    18     8    19 ar  
    19     8    36 1   
    20     9    19 ar  
    21     9    20 ar  
    22     9    68 1   
    23    10    18 ar  
    24    10    20 ar  
    25    10    37 1   
    26    11    12 ar  
    27    11    22 ar  
    28    11    38 1   
    29    12    13 ar  
    30    12    14 1   
    31    13    23 ar  
    32    13    39 1   
    33    14    16 1   
    34    14    24 1   
    35    14    40 1   
    36    15    24 1   
    37    15    41 1   
    38    15    42 1   
    39    16    25 1   
    40    16    43 1   
    41    16    44 1   
    42    17    31 1   
    43    17    45 1   
    44    17    46 1   
    45    17    69 1   
    46    18    67 1   
    47    19    47 1   
    48    20    48 1   
    49    21    22 ar  
    50    21    23 ar  
    51    21    67 1   
    52    22    49 1   
    53    23    52 1   
    54    24    53 1   
    55    24    54 1   
    56    25    55 1   
    57    25    56 1   
    58    26    28 1   
    59    26    29 1   
    60    26    57 1   
    61    27    58 1   
    62    27    59 1   
    63    27    69 1   
    64    28    29 1   
    65    28    60 1   
    66    28    61 1   
    67    29    62 1   
    68    29    63 1   
    69    30    64 1   
    70    31    65 1   
    71    50    69 1   
    72    51    69 1   
    73    66    68 1   
@<TRIPOS>SUBSTRUCTURE
     1 DL9         1 TEMP              0 ****  ****    0 ROOT
