@<TRIPOS>MOLECULE
DL9
   69    73     1     0     0
SMALL
No Charge or Current Charge


@<TRIPOS>ATOM
      1 N1         -44.0290   -13.9840    -1.6890 n3         1 DL9      -0.713600
      2 C4         -42.4640   -11.2020   -10.6240 ce         1 DL9      -0.038400
      3 C5         -43.9270   -10.9740   -10.4280 ca         1 DL9      -0.054800
      4 C6         -44.3680   -10.0700    -9.4410 ca         1 DL9      -0.095000
      5 C7         -45.7410    -9.8480    -9.2410 ca         1 DL9      -0.113000
      6 C8         -46.6850   -10.5280   -10.0280 ca         1 DL9      -0.109000
      7 C10        -44.8800   -11.6540   -11.2140 ca         1 DL9      -0.095000
      8 C13        -39.3340   -10.7370   -10.1310 ca         1 DL9      -0.058000
      9 C15        -37.3640   -12.1590    -9.9890 ca         1 DL9       0.141100
     10 C17        -39.5650   -13.0730    -9.5010 ca         1 DL9      -0.058000
     11 C20        -43.6320   -13.2850    -6.8380 ca         1 DL9      -0.111000
     12 C21        -42.9350   -12.8610    -5.6910 ca         1 DL9      -0.073300
     13 C22        -41.7990   -12.0420    -5.8480 ca         1 DL9      -0.111000
     14 C24        -43.4110   -13.2960    -4.2950 c6         1 DL9      -0.009400
     15 C26        -42.6430   -14.3740    -2.0590 c6         1 DL9       0.178300
     16 C28        -43.7460   -12.0920    -3.3770 c6         1 DL9      -0.068900
     17 C1         -41.4020    -8.9730   -13.7110 c3         1 DL9       0.162600
     18 C12        -40.1580   -11.8220    -9.7680 ca         1 DL9      -0.085800
     19 C14        -37.9430   -10.9080   -10.2440 ca         1 DL9      -0.180500
     20 C16        -38.1740   -13.2420    -9.6150 ca         1 DL9      -0.180500
     21 C18        -42.0770   -12.0640    -8.2800 ca         1 DL9      -0.053800
     22 C19        -43.2070   -12.8930    -8.1180 ca         1 DL9      -0.094500
     23 C23        -41.3740   -11.6500    -7.1290 ca         1 DL9      -0.094500
     24 C25        -42.3840   -14.2260    -3.5860 c6         1 DL9      -0.068900
     25 C27        -44.2950   -12.5460    -1.9930 c6         1 DL9       0.178300
     26 C29        -44.3810   -14.3430    -0.3380 cx         1 DL9       0.111500
     27 C3         -41.9700   -10.8700   -12.0340 c3         1 DL9      -0.036200
     28 C30        -45.8320   -14.6320    -0.0480 cx         1 DL9      -0.125400
     29 C31        -44.8260   -15.7610    -0.0860 cx         1 DL9      -0.125400
     30 C9         -46.2540   -11.4310   -11.0140 ca         1 DL9      -0.113000
     31 O1         -42.1340    -9.5600   -14.7920 oh         1 DL9      -0.662000
     32 H8         -43.6420    -9.5410    -8.8270 ha         1 DL9       0.115500
     33 H9         -46.0730    -9.1500    -8.4760 ha         1 DL9       0.111000
     34 H10        -47.7480   -10.3570    -9.8740 ha         1 DL9       0.111000
     35 H12        -44.5580   -12.3630   -11.9720 ha         1 DL9       0.115500
     36 H13        -39.7690    -9.7580   -10.3130 ha         1 DL9       0.118000
     37 H17        -40.1870   -13.9180    -9.2110 ha         1 DL9       0.118000
     38 H19        -44.5070   -13.9240    -6.7430 ha         1 DL9       0.111000
     39 H20        -41.2410   -11.7050    -4.9790 ha         1 DL9       0.111000
     40 H22        -44.3410   -13.8700    -4.4170 hc         1 DL9       0.064700
     41 H25        -42.4390   -15.4150    -1.7680 h1         1 DL9       0.031700
     42 H26        -41.9250   -13.7450    -1.5120 h1         1 DL9       0.031700
     43 H29        -42.8440   -11.4880    -3.2170 hc         1 DL9       0.043950
     44 H30        -44.4750   -11.4320    -3.8650 hc         1 DL9       0.043950
     45 H2         -40.3560    -9.3080   -13.7290 h1         1 DL9       0.016700
     46 H3         -41.4040    -7.8790   -13.8060 h1         1 DL9       0.016700
     47 H14        -37.3150   -10.0660   -10.5260 ha         1 DL9       0.120000
     48 H16        -37.7350   -14.2160    -9.4110 ha         1 DL9       0.120000
     49 H18        -43.7530   -13.2460    -8.9880 ha         1 DL9       0.116500
     50 H5         -41.5240    -8.7990   -11.5660 hc         1 DL9       0.049200
     51 H4         -43.0820    -9.0250   -12.3430 hc         1 DL9       0.049200
     52 H21        -40.4990   -11.0110    -7.2240 ha         1 DL9       0.116500
     53 H24        -42.4170   -15.2170    -4.0600 hc         1 DL9       0.043950
     54 H23        -41.3600   -13.8560    -3.7320 hc         1 DL9       0.043950
     55 H28        -43.8540   -11.9010    -1.2180 h1         1 DL9       0.031700
     56 H27        -45.3800   -12.3670    -1.9710 h1         1 DL9       0.031700
     57 H31        -43.8020   -13.8520     0.4460 h1         1 DL9       0.053700
     58 H7         -42.5690   -11.4110   -12.7760 hc         1 DL9       0.058700
     59 H6         -40.9470   -11.2240   -12.1970 hc         1 DL9       0.058700
     60 H33        -46.2210   -14.3290     0.9210 hc         1 DL9       0.074200
     61 H32        -46.5420   -14.5580    -0.8690 hc         1 DL9       0.074200
     62 H34        -44.8610   -16.4430    -0.9320 hc         1 DL9       0.074200
     63 H35        -44.5380   -16.2170     0.8570 hc         1 DL9       0.074200
     64 H11        -46.9830   -11.9610   -11.6230 ha         1 DL9       0.111000
     65 H1         -41.6950    -9.2720   -15.6230 ho         1 DL9       0.440000
     66 H15        -35.7920   -13.2450    -9.8860 ho         1 DL9       0.465000
     67 C11        -41.6240   -11.6490    -9.6320 cf         1 DL9      -0.000400
     68 O2         -36.0160   -12.3140   -10.1010 oh         1 DL9      -0.534100
     69 C2         -42.0370    -9.3570   -12.3570 c3         1 DL9      -0.073400
@<TRIPOS>BOND
     1     1    15 1   
     2     1    25 1   
     3     1    26 1   
     4     2     3 1   
     5     2    27 1   
     6     2    67 2   
     7     3     4 ar  
     8     3     7 ar  
     9     4     5 ar  
    10     4    32 1   
    11     5     6 ar  
    12     5    33 1   
    13     6    30 ar  
    14     6    34 1   
    15     7    30 ar  
    16     7    35 1   
    17     8    18 ar  
    18     8    19 ar  
    19     8    36 1   
    20     9    19 ar  
    21     9    20 ar  
    22     9    68 1   
    23    10    18 ar  
    24    10    20 ar  
    25    10    37 1   
    26    11    12 ar  
    27    11    22 ar  
    28    11    38 1   
    29    12    13 ar  
    30    12    14 1   
    31    13    23 ar  
    32    13    39 1   
    33    14    16 1   
    34    14    24 1   
    35    14    40 1   
    36    15    24 1   
    37    15    41 1   
    38    15    42 1   
    39    16    25 1   
    40    16    43 1   
    41    16    44 1   
    42    17    31 1   
    43    17    45 1   
    44    17    46 1   
    45    17    69 1   
    46    18    67 1   
    47    19    47 1   
    48    20    48 1   
    49    21    22 ar  
    50    21    23 ar  
    51    21    67 1   
    52    22    49 1   
    53    23    52 1   
    54    24    53 1   
    55    24    54 1   
    56    25    55 1   
    57    25    56 1   
    58    26    28 1   
    59    26    29 1   
    60    26    57 1   
    61    27    58 1   
    62    27    59 1   
    63    27    69 1   
    64    28    29 1   
    65    28    60 1   
    66    28    61 1   
    67    29    62 1   
    68    29    63 1   
    69    30    64 1   
    70    31    65 1   
    71    50    69 1   
    72    51    69 1   
    73    66    68 1   
@<TRIPOS>SUBSTRUCTURE
     1 DL9         1 TEMP              0 ****  ****    0 ROOT
