@<TRIPOS>MOLECULE
DLA
   11    10     1     0     0
SMALL
No Charge or Current Charge


@<TRIPOS>ATOM
      1 O1          -1.1120     0.7350    -0.9150 o          1 DLA      -0.727000
      2 O2           0.4960    -0.5300    -1.5960 o          1 DLA      -0.727000
      3 O3          -0.9280    -0.0840     1.6770 oh         1 DLA      -0.717000
      4 C1          -0.1420     0.0160    -0.7060 c          1 DLA       0.690000
      5 C2           0.1930    -0.3380     0.7920 c3         1 DLA       0.018300
      6 C3           1.4190     0.4550     1.2970 c3         1 DLA      -0.076100
      7 H2           0.4460    -1.4060     0.8240 h1         1 DLA       0.021700
      8 H31          1.6650     0.1760     2.3290 hc         1 DLA       0.015033
      9 H32          2.2950     0.2440     0.6720 hc         1 DLA       0.015033
     10 H33          1.2270     1.5340     1.2650 hc         1 DLA       0.015033
     11 HO3         -1.5600     0.4480     1.1320 ho         1 DLA       0.472000
@<TRIPOS>BOND
     1     1     4 1   
     2     2     4 1   
     3     3     5 1   
     4     3    11 1   
     5     4     5 1   
     6     5     6 1   
     7     5     7 1   
     8     6     8 1   
     9     6     9 1   
    10     6    10 1   
@<TRIPOS>SUBSTRUCTURE
     1 DLA         1 TEMP              0 ****  ****    0 ROOT
