@<TRIPOS>MOLECULE
DLA
   11    10     1     0     0
SMALL
bcc


@<TRIPOS>ATOM
      1 O1          -1.2970     0.5410    -0.8180 o          1 DLA      -0.832300
      2 O2           0.6780    -0.2440    -1.5150 o          1 DLA      -0.832300
      3 O3          -0.9210     0.0140     1.6420 oh         1 DLA      -0.654800
      4 C1          -0.1690     0.0210    -0.6480 c          1 DLA       0.900600
      5 C2           0.1750    -0.3110     0.8200 c3         1 DLA      -0.004900
      6 C3           1.4350     0.4190     1.2670 c3         1 DLA      -0.076100
      7 H2           0.3700    -1.3930     0.8770 h1         1 DLA       0.021700
      8 H31          1.6640     0.2010     2.3120 hc         1 DLA       0.015033
      9 H32          2.2910     0.1110     0.6680 hc         1 DLA       0.015033
     10 H33          1.3230     1.5010     1.1670 hc         1 DLA       0.015033
     11 HO3         -1.5500     0.3900     0.9990 ho         1 DLA       0.433000
@<TRIPOS>BOND
     1     1     4 1   
     2     2     4 1   
     3     3     5 1   
     4     3    11 1   
     5     4     5 1   
     6     5     6 1   
     7     5     7 1   
     8     6     8 1   
     9     6     9 1   
    10     6    10 1   
@<TRIPOS>SUBSTRUCTURE
     1 DLA         1 TEMP              0 ****  ****    0 ROOT
