@<TRIPOS>MOLECULE
DLB
   59    62     1     0     0
SMALL
bcc


@<TRIPOS>ATOM
      1 C10          4.3400    -0.1910    -0.2610 ca         1 DLB      -0.075300
      2 C11          4.1550    -1.1030    -1.2950 ca         1 DLB      -0.112500
      3 C13          5.2880    -2.7990    -0.0510 ca         1 DLB       0.028400
      4 C15          5.0120    -0.6150     0.8840 ca         1 DLB      -0.112500
      5 C17          5.0050     2.2490    -0.5020 c3         1 DLB      -0.044700
      6 C18          5.9610     1.8510    -1.6220 c3         1 DLB      -0.090600
      7 C19          4.4660     3.6540    -0.7620 c3         1 DLB      -0.090600
      8 C21         -3.2400     1.8150    -0.6120 ca         1 DLB       0.015100
      9 C22         -3.0620     0.5810    -0.0090 ca         1 DLB       0.040100
     10 C24         -4.0370    -0.3850    -0.0230 ca         1 DLB      -0.117000
     11 C25         -5.2440    -0.0870    -0.6770 ca         1 DLB      -0.038300
     12 C26         -5.4090     1.1560    -1.2770 ca         1 DLB      -0.140000
     13 C27         -4.4070     2.1350    -1.2570 ca         1 DLB      -0.116000
     14 C28         -6.3570    -1.0990    -0.6800 c3         1 DLB      -0.023100
     15 C1           0.7150     1.4900     1.7940 c6         1 DLB       0.100000
     16 C2          -0.4360     2.3540     1.2850 c6         1 DLB      -0.112400
     17 C3          -1.1280     1.6990     0.1090 c5         1 DLB       0.349600
     18 C4          -0.1350     1.2980    -0.9720 c6         1 DLB      -0.112400
     19 C5           1.0050     0.4740    -0.3850 c6         1 DLB       0.100000
     20 N6           1.6370     1.1840     0.7120 n          1 DLB      -0.474800
     21 C7           2.9380     1.5440     0.7970 c          1 DLB       0.682100
     22 O8           3.3960     2.0710     1.8020 o          1 DLB      -0.616100
     23 C9           3.8500     1.2350    -0.3920 c3         1 DLB      -0.090400
     24 C12          4.6230    -2.4060    -1.2010 ca         1 DLB      -0.122000
     25 C14          5.4890    -1.9120     0.9960 ca         1 DLB      -0.122000
     26 CL           5.8820    -4.4230     0.0790 cl         1 DLB      -0.118400
     27 O20         -2.1240     2.5680    -0.4320 os         1 DLB      -0.325900
     28 O23         -1.8330     0.5340     0.5610 os         1 DLB      -0.326900
     29 C29         -7.2650    -0.9520     0.5380 c3         1 DLB      -0.204400
     30 C30         -8.4110    -1.9760     0.6380 c          1 DLB       0.928600
     31 O31         -9.1790    -1.8380     1.6130 o          1 DLB      -0.842800
     32 O32         -8.4850    -2.8540    -0.2430 o          1 DLB      -0.842800
     33 H1           3.6470    -0.7950    -2.2010 ha         1 DLB       0.143000
     34 H2           5.1720     0.0710     1.7060 ha         1 DLB       0.143000
     35 H3           5.5600     2.2510     0.4400 hc         1 DLB       0.069700
     36 H4           6.7610     2.5860    -1.7170 hc         1 DLB       0.035033
     37 H5           6.4250     0.8800    -1.4450 hc         1 DLB       0.035033
     38 H6           5.4420     1.8010    -2.5830 hc         1 DLB       0.035033
     39 H7           3.9190     3.6860    -1.7070 hc         1 DLB       0.035033
     40 H8           3.7970     3.9990     0.0260 hc         1 DLB       0.035033
     41 H9           5.2850     4.3710    -0.8320 hc         1 DLB       0.035033
     42 H10         -3.8830    -1.3470     0.4510 ha         1 DLB       0.153000
     43 H11         -6.3410     1.3780    -1.7830 ha         1 DLB       0.139000
     44 H12         -4.5520     3.0970    -1.7320 ha         1 DLB       0.136000
     45 H13         -6.9500    -0.9920    -1.5920 hc         1 DLB       0.053700
     46 H14         -5.9360    -2.1070    -0.7040 hc         1 DLB       0.053700
     47 H15          1.2440     2.0090     2.5860 h1         1 DLB       0.062950
     48 H16          0.3330     0.5550     2.2170 h1         1 DLB       0.062950
     49 H17         -1.1530     2.5300     2.0900 hc         1 DLB       0.068700
     50 H18         -0.0460     3.3240     0.9670 hc         1 DLB       0.068700
     51 H19         -0.6390     0.7250    -1.7540 hc         1 DLB       0.068700
     52 H20          0.2680     2.2030    -1.4330 hc         1 DLB       0.068700
     53 H21          0.6320    -0.4850    -0.0130 h1         1 DLB       0.062950
     54 H22          1.7170     0.2430    -1.1690 h1         1 DLB       0.062950
     55 H23          3.2870     1.3140    -1.3260 hc         1 DLB       0.063700
     56 H24          4.4710    -3.1010    -2.0150 ha         1 DLB       0.147000
     57 H25          6.0100    -2.2260     1.8900 ha         1 DLB       0.147000
     58 H26         -6.6650    -1.0150     1.4520 hc         1 DLB       0.021700
     59 H27         -7.6960     0.0550     0.5520 hc         1 DLB       0.021700
@<TRIPOS>BOND
     1     1     2 ar  
     2     1     4 ar  
     3     1    23 1   
     4     2    24 ar  
     5     2    33 1   
     6     3    24 ar  
     7     3    25 ar  
     8     3    26 1   
     9     4    25 ar  
    10     4    34 1   
    11     5     6 1   
    12     5     7 1   
    13     5    23 1   
    14     5    35 1   
    15     6    36 1   
    16     6    37 1   
    17     6    38 1   
    18     7    39 1   
    19     7    40 1   
    20     7    41 1   
    21     8     9 ar  
    22     8    13 ar  
    23     8    27 1   
    24     9    10 ar  
    25     9    28 1   
    26    10    11 ar  
    27    10    42 1   
    28    11    12 ar  
    29    11    14 1   
    30    12    13 ar  
    31    12    43 1   
    32    13    44 1   
    33    14    29 1   
    34    14    45 1   
    35    14    46 1   
    36    15    16 1   
    37    15    20 1   
    38    15    47 1   
    39    15    48 1   
    40    16    17 1   
    41    16    49 1   
    42    16    50 1   
    43    17    18 1   
    44    17    27 1   
    45    17    28 1   
    46    18    19 1   
    47    18    51 1   
    48    18    52 1   
    49    19    20 1   
    50    19    53 1   
    51    19    54 1   
    52    20    21 1   
    53    21    22 2   
    54    21    23 1   
    55    23    55 1   
    56    24    56 1   
    57    25    57 1   
    58    29    30 1   
    59    29    58 1   
    60    29    59 1   
    61    30    31 1   
    62    30    32 1   
@<TRIPOS>SUBSTRUCTURE
     1 DLB         1 TEMP              0 ****  ****    0 ROOT
