@<TRIPOS>MOLECULE
DLB
   59    62     1     0     0
SMALL
No Charge or Current Charge


@<TRIPOS>ATOM
      1 C10          4.3020    -0.2320    -0.3920 ca         1 DLB      -0.075300
      2 C11          4.1100    -0.8760    -1.6330 ca         1 DLB      -0.094500
      3 C13          4.7880    -3.0000    -0.6590 ca         1 DLB       0.120000
      4 C15          4.7460    -0.9910     0.7120 ca         1 DLB      -0.094500
      5 C17          5.3230     2.0770     0.1250 c3         1 DLB      -0.044700
      6 C18          6.4980     1.7910    -0.8440 c3         1 DLB      -0.090600
      7 C19          5.0510     3.6000     0.2000 c3         1 DLB      -0.090600
      8 C21         -3.4700     1.6880    -1.0240 ca         1 DLB       0.015100
      9 C22         -3.0830     0.5780    -0.3280 ca         1 DLB       0.040100
     10 C24         -3.9840    -0.4460    -0.0150 ca         1 DLB      -0.099000
     11 C25         -5.3260    -0.3120    -0.4400 ca         1 DLB      -0.038300
     12 C26         -5.7220     0.8430    -1.1610 ca         1 DLB      -0.122000
     13 C27         -4.7880     1.8590    -1.4610 ca         1 DLB      -0.098000
     14 C28         -6.3420    -1.4000    -0.1190 c3         1 DLB      -0.023100
     15 C1           0.5050     2.1760     1.1960 c6         1 DLB       0.100000
     16 C2          -0.7500     2.7910     0.5390 c6         1 DLB      -0.112400
     17 C3          -1.3170     1.8850    -0.5680 c5         1 DLB       0.396000
     18 C4          -0.2020     1.6380    -1.6000 c6         1 DLB      -0.112400
     19 C5           1.0590     1.0220    -0.9550 c6         1 DLB       0.100000
     20 N6           1.5720     1.7810     0.2280 n          1 DLB      -0.407800
     21 C7           2.8660     1.5070     0.7390 c          1 DLB       0.615100
     22 O8           3.0540     1.4680     1.9510 o          1 DLB      -0.616100
     23 C9           4.0380     1.2740    -0.2560 c3         1 DLB      -0.090400
     24 C12          4.3510    -2.2550    -1.7650 ca         1 DLB      -0.104000
     25 C14          4.9860    -2.3700     0.5790 ca         1 DLB      -0.104000
     26 Cl           5.0890    -4.7250    -0.8250 cl         1 DLB      -0.210000
     27 O20         -2.4470     2.5590    -1.2210 os         1 DLB      -0.349100
     28 O23         -1.7680     0.6080     0.0040 os         1 DLB      -0.350100
     29 C29         -7.0440    -1.1640     1.2390 c3         1 DLB      -0.204400
     30 C30         -8.0570    -2.2880     1.5090 c          1 DLB       0.718000
     31 O31         -9.1970    -2.1490     1.0920 o          1 DLB      -0.737500
     32 O32         -7.6640    -3.2930     2.0820 o          1 DLB      -0.737500
     33 H1           3.7780    -0.3110    -2.5020 ha         1 DLB       0.125000
     34 H2           4.9050    -0.5160     1.6770 ha         1 DLB       0.125000
     35 H3           5.6460     1.7570     1.1240 hc         1 DLB       0.069700
     36 H4           7.3820     2.3780    -0.5650 hc         1 DLB       0.035033
     37 H5           6.7850     0.7330    -0.8200 hc         1 DLB       0.035033
     38 H6           6.2270     2.0520    -1.8740 hc         1 DLB       0.035033
     39 H7           4.7030     3.9830    -0.7670 hc         1 DLB       0.035033
     40 H8           4.2920     3.8340     0.9550 hc         1 DLB       0.035033
     41 H9           5.9650     4.1430     0.4730 hc         1 DLB       0.035033
     42 H10         -3.6550    -1.3190     0.5430 ha         1 DLB       0.135000
     43 H11         -6.7540     0.9530    -1.4870 ha         1 DLB       0.121000
     44 H12         -5.0830     2.7480    -2.0130 ha         1 DLB       0.118000
     45 H13         -7.0990    -1.4520    -0.9120 hc         1 DLB       0.053700
     46 H14         -5.8500    -2.3810    -0.1060 hc         1 DLB       0.053700
     47 H15          0.9130     2.9040     1.9120 h1         1 DLB       0.062950
     48 H16          0.2100     1.2880     1.7740 h1         1 DLB       0.062950
     49 H17         -1.5190     2.9690     1.3010 hc         1 DLB       0.068700
     50 H18         -0.4950     3.7710     0.1140 hc         1 DLB       0.068700
     51 H19         -0.5730     0.9770    -2.3940 hc         1 DLB       0.068700
     52 H20          0.0640     2.5880    -2.0840 hc         1 DLB       0.068700
     53 H21          0.8310    -0.0050    -0.6340 h1         1 DLB       0.062950
     54 H22          1.8230     0.9420    -1.7370 h1         1 DLB       0.062950
     55 H23          3.7190     1.6450    -1.2350 hc         1 DLB       0.063700
     56 H24          4.2000    -2.7450    -2.7230 ha         1 DLB       0.129000
     57 H25          5.3270    -2.9480     1.4330 ha         1 DLB       0.129000
     58 H26         -6.2470    -1.1740     1.9940 hc         1 DLB       0.021700
     59 H27         -7.5550    -0.1980     1.1490 hc         1 DLB       0.021700
@<TRIPOS>BOND
     1     1     2 ar  
     2     1     4 ar  
     3     1    23 1   
     4     2    24 ar  
     5     2    33 1   
     6     3    24 ar  
     7     3    25 ar  
     8     3    26 1   
     9     4    25 ar  
    10     4    34 1   
    11     5     6 1   
    12     5     7 1   
    13     5    23 1   
    14     5    35 1   
    15     6    36 1   
    16     6    37 1   
    17     6    38 1   
    18     7    39 1   
    19     7    40 1   
    20     7    41 1   
    21     8     9 ar  
    22     8    13 ar  
    23     8    27 1   
    24     9    10 ar  
    25     9    28 1   
    26    10    11 ar  
    27    10    42 1   
    28    11    12 ar  
    29    11    14 1   
    30    12    13 ar  
    31    12    43 1   
    32    13    44 1   
    33    14    29 1   
    34    14    45 1   
    35    14    46 1   
    36    15    16 1   
    37    15    20 1   
    38    15    47 1   
    39    15    48 1   
    40    16    17 1   
    41    16    49 1   
    42    16    50 1   
    43    17    18 1   
    44    17    27 1   
    45    17    28 1   
    46    18    19 1   
    47    18    51 1   
    48    18    52 1   
    49    19    20 1   
    50    19    53 1   
    51    19    54 1   
    52    20    21 1   
    53    21    22 2   
    54    21    23 1   
    55    23    55 1   
    56    24    56 1   
    57    25    57 1   
    58    29    30 1   
    59    29    58 1   
    60    29    59 1   
    61    30    31 1   
    62    30    32 1   
@<TRIPOS>SUBSTRUCTURE
     1 DLB         1 TEMP              0 ****  ****    0 ROOT
