@<TRIPOS>MOLECULE
DLE
   21    20     1     0     0
SMALL
No Charge or Current Charge


@<TRIPOS>ATOM
      1 N            1.6010     0.9810    -0.5540 n8         1 DLE      -0.889800
      2 CA           0.1960     0.4160    -0.5610 c3         1 DLE       0.013500
      3 CB          -0.0030    -0.5820     0.6170 c3         1 DLE      -0.047400
      4 CG           0.1620    -0.0010     2.0530 c3         1 DLE      -0.061700
      5 CD1         -0.8670     1.1100     2.3770 c3         1 DLE      -0.078600
      6 CD2          0.0990    -1.1260     3.1120 c3         1 DLE      -0.078600
      7 C           -0.3010    -0.2430    -1.9220 c          1 DLE       0.900600
      8 O            0.4170    -1.0710    -2.4760 o          1 DLE      -0.842800
      9 OXT         -1.3280     0.1810    -2.4400 o          1 DLE      -0.842800
     10 H            1.6880     1.6760    -1.3030 hn         1 DLE       0.324300
     11 H2           2.2520     0.2380    -0.8280 hn         1 DLE       0.324300
     12 HA          -0.4770     1.2660    -0.3900 h1         1 DLE       0.037700
     13 HB2          0.6970    -1.4170     0.4860 hc         1 DLE       0.037200
     14 HB3         -1.0080    -1.0160     0.5350 hc         1 DLE       0.037200
     15 HG           1.1620     0.4460     2.1260 hc         1 DLE       0.053700
     16 HD11        -0.7450     1.4590     3.4090 hc         1 DLE       0.018700
     17 HD12        -0.7370     1.9770     1.7190 hc         1 DLE       0.018700
     18 HD13        -1.8920     0.7380     2.2610 hc         1 DLE       0.018700
     19 HD21        -0.8810    -1.6180     3.1010 hc         1 DLE       0.018700
     20 HD22         0.8670    -1.8840     2.9190 hc         1 DLE       0.018700
     21 HD23         0.2700    -0.7220     4.1170 hc         1 DLE       0.018700
@<TRIPOS>BOND
     1     1     2 1   
     2     1    10 1   
     3     1    11 1   
     4     2     3 1   
     5     2     7 1   
     6     2    12 1   
     7     3     4 1   
     8     3    13 1   
     9     3    14 1   
    10     4     5 1   
    11     4     6 1   
    12     4    15 1   
    13     5    16 1   
    14     5    17 1   
    15     5    18 1   
    16     6    19 1   
    17     6    20 1   
    18     6    21 1   
    19     7     8 1   
    20     7     9 1   
@<TRIPOS>SUBSTRUCTURE
     1 DLE         1 TEMP              0 ****  ****    0 ROOT
