@<TRIPOS>MOLECULE
DLE
   21    20     1     0     0
SMALL
bcc


@<TRIPOS>ATOM
      1 N            1.5340     0.9500    -0.4780 n8         1 DLE      -0.889800
      2 CA           0.1770     0.4290    -0.5400 c3         1 DLE       0.013500
      3 CB          -0.0540    -0.5570     0.6100 c3         1 DLE      -0.047400
      4 CG           0.1800    -0.0030     2.0160 c3         1 DLE      -0.061700
      5 CD1         -0.7660     1.1470     2.3410 c3         1 DLE      -0.078600
      6 CD2          0.0400    -1.1200     3.0470 c3         1 DLE      -0.078600
      7 C           -0.2090    -0.2610    -1.8710 c          1 DLE       0.900600
      8 O            0.7140    -0.5850    -2.6450 o          1 DLE      -0.842800
      9 OXT         -1.4300    -0.4610    -2.0500 o          1 DLE      -0.842800
     10 H            1.6420     1.6680    -1.1850 hn         1 DLE       0.324300
     11 H2           2.1620     0.2110    -0.7770 hn         1 DLE       0.324300
     12 HA          -0.5070     1.2740    -0.4080 h1         1 DLE       0.037700
     13 HB2          0.6040    -1.4230     0.4600 hc         1 DLE       0.037200
     14 HB3         -1.0790    -0.9380     0.5460 hc         1 DLE       0.037200
     15 HG           1.2060     0.3760     2.0630 hc         1 DLE       0.053700
     16 HD11        -0.6040     1.5180     3.3560 hc         1 DLE       0.018700
     17 HD12        -0.6320     1.9910     1.6630 hc         1 DLE       0.018700
     18 HD13        -1.8090     0.8260     2.2690 hc         1 DLE       0.018700
     19 HD21        -0.9710    -1.5370     3.0400 hc         1 DLE       0.018700
     20 HD22         0.7340    -1.9380     2.8440 hc         1 DLE       0.018700
     21 HD23         0.2390    -0.7590     4.0580 hc         1 DLE       0.018700
@<TRIPOS>BOND
     1     1     2 1   
     2     1    10 1   
     3     1    11 1   
     4     2     3 1   
     5     2     7 1   
     6     2    12 1   
     7     3     4 1   
     8     3    13 1   
     9     3    14 1   
    10     4     5 1   
    11     4     6 1   
    12     4    15 1   
    13     5    16 1   
    14     5    17 1   
    15     5    18 1   
    16     6    19 1   
    17     6    20 1   
    18     6    21 1   
    19     7     8 1   
    20     7     9 1   
@<TRIPOS>SUBSTRUCTURE
     1 DLE         1 TEMP              0 ****  ****    0 ROOT
