@<TRIPOS>MOLECULE
DLF
   22    22     1     0     0
SMALL
abcg2


@<TRIPOS>ATOM
      1 C1          -0.4100     6.4530    -5.2900 c6         1 DLF       0.384300
      2 C2          -0.0870     5.1520    -6.0120 c6         1 DLF      -0.091400
      3 C3          -1.3550     4.3950    -6.3670 c6         1 DLF       0.133300
      4 C4          -2.3130     5.3090    -7.1380 c6         1 DLF       0.109300
      5 C5          -2.5540     6.5800    -6.3320 c6         1 DLF       0.183300
      6 C6          -3.4290     7.5870    -7.0520 c3         1 DLF      -0.082100
      7 O1          -0.8740     6.1360    -4.0100 oh         1 DLF      -0.686000
      8 O3          -0.9910     3.2690    -7.1420 oh         1 DLF      -0.663000
      9 O4          -1.7930     5.6440    -8.4010 oh         1 DLF      -0.703000
     10 O5          -1.3310     7.2280    -6.0120 os         1 DLF      -0.474000
     11 H1           0.4880     7.0790    -5.2340 h2         1 DLF       0.066700
     12 H2           0.4650     5.3950    -6.9220 hc         1 DLF       0.073200
     13 H22          0.5700     4.5420    -5.3900 hc         1 DLF       0.073200
     14 H3          -1.8620     4.0810    -5.4460 h1         1 DLF       0.052700
     15 H4          -3.2830     4.7940    -7.2340 h1         1 DLF       0.030700
     16 H5          -3.0700     6.2730    -5.4120 h1         1 DLF       0.040700
     17 H61         -3.6350     8.4450    -6.4120 hc         1 DLF       0.047033
     18 H62         -2.9630     7.9470    -7.9690 hc         1 DLF       0.047033
     19 H63         -4.3850     7.1320    -7.3130 hc         1 DLF       0.047033
     20 HO1         -0.9660     6.9500    -3.5020 ho         1 DLF       0.454000
     21 HO3         -1.7540     2.6860    -7.2080 ho         1 DLF       0.445000
     22 HO4         -1.4560     4.8310    -8.7960 ho         1 DLF       0.512000
@<TRIPOS>BOND
     1     1     2 1   
     2     1     7 1   
     3     1    10 1   
     4     1    11 1   
     5     2     3 1   
     6     2    12 1   
     7     2    13 1   
     8     3     4 1   
     9     3     8 1   
    10     3    14 1   
    11     4     5 1   
    12     4     9 1   
    13     4    15 1   
    14     5     6 1   
    15     5    10 1   
    16     5    16 1   
    17     6    17 1   
    18     6    18 1   
    19     6    19 1   
    20     7    20 1   
    21     8    21 1   
    22     9    22 1   
@<TRIPOS>SUBSTRUCTURE
     1 DLF         1 TEMP              0 ****  ****    0 ROOT
