@<TRIPOS>MOLECULE
DLF
   22    22     1     0     0
SMALL
No Charge or Current Charge


@<TRIPOS>ATOM
      1 C1          -0.3580     6.4500    -5.2870 c6         1 DLF       0.384300
      2 C2          -0.0570     5.1270    -6.0340 c6         1 DLF      -0.091400
      3 C3          -1.3550     4.3680    -6.4220 c6         1 DLF       0.133300
      4 C4          -2.3440     5.3070    -7.1770 c6         1 DLF       0.109300
      5 C5          -2.5710     6.5900    -6.3100 c6         1 DLF       0.183300
      6 C6          -3.4810     7.6390    -6.9980 c3         1 DLF      -0.082100
      7 O1          -0.9050     6.2020    -3.9980 oh         1 DLF      -0.686000
      8 O3          -1.0260     3.2360    -7.2480 oh         1 DLF      -0.663000
      9 O4          -1.8010     5.5970    -8.4810 oh         1 DLF      -0.703000
     10 O5          -1.3090     7.2450    -6.0180 os         1 DLF      -0.474000
     11 H1           0.5800     7.0190    -5.1810 h2         1 DLF       0.066700
     12 H2           0.5300     5.3570    -6.9330 hc         1 DLF       0.073200
     13 H22          0.5790     4.4870    -5.4090 hc         1 DLF       0.073200
     14 H3          -1.8410     4.0280    -5.4950 h1         1 DLF       0.052700
     15 H4          -3.3070     4.7850    -7.2840 h1         1 DLF       0.030700
     16 H5          -3.0570     6.3020    -5.3660 h1         1 DLF       0.040700
     17 H61         -3.6580     8.4960    -6.3370 hc         1 DLF       0.047033
     18 H62         -3.0320     8.0170    -7.9240 hc         1 DLF       0.047033
     19 H63         -4.4560     7.2070    -7.2490 hc         1 DLF       0.047033
     20 HO1         -1.1410     7.0890    -3.6530 ho         1 DLF       0.454000
     21 HO3         -1.7260     2.5600    -7.1030 ho         1 DLF       0.445000
     22 HO4         -1.2530     4.8010    -8.6900 ho         1 DLF       0.512000
@<TRIPOS>BOND
     1     1     2 1   
     2     1     7 1   
     3     1    10 1   
     4     1    11 1   
     5     2     3 1   
     6     2    12 1   
     7     2    13 1   
     8     3     4 1   
     9     3     8 1   
    10     3    14 1   
    11     4     5 1   
    12     4     9 1   
    13     4    15 1   
    14     5     6 1   
    15     5    10 1   
    16     5    16 1   
    17     6    17 1   
    18     6    18 1   
    19     6    19 1   
    20     7    20 1   
    21     8    21 1   
    22     9    22 1   
@<TRIPOS>SUBSTRUCTURE
     1 DLF         1 TEMP              0 ****  ****    0 ROOT
