@<TRIPOS>MOLECULE
DLG
   41    41     1     0     0
SMALL
bcc


@<TRIPOS>ATOM
      1 C1          17.9570    64.0000    46.0240 c6         1 DLG       0.359900
      2 C2          16.9700    62.9380    45.5580 c6         1 DLG       0.124100
      3 C3          17.1720    61.6820    46.4030 c6         1 DLG      -0.114400
      4 C4          18.6210    61.2140    46.4050 c6         1 DLG       0.124100
      5 C5          19.5100    62.3970    46.7950 c6         1 DLG       0.126100
      6 C6          20.9880    62.0770    46.7480 c3         1 DLG       0.145400
      7 O1          17.8650    65.1050    45.2110 os         1 DLG      -0.387600
      8 O2          15.6730    63.4650    45.7040 oh         1 DLG      -0.584800
      9 O4          18.9200    60.7060    45.1210 oh         1 DLG      -0.584800
     10 O5          19.2680    63.4980    45.9440 os         1 DLG      -0.421600
     11 O6          21.7020    63.1490    47.3170 oh         1 DLG      -0.584800
     12 C11         18.5200    66.2670    45.6950 c3         1 DLG       0.142400
     13 C12         18.1220    67.4430    44.8240 c3         1 DLG      -0.081400
     14 C13         18.6910    68.7730    45.3140 c3         1 DLG      -0.072400
     15 C14         20.2100    68.8810    45.2230 c3         1 DLG      -0.077400
     16 C15         20.7590    70.2330    45.6750 c3         1 DLG      -0.074400
     17 C16         20.3580    71.3990    44.7790 c3         1 DLG      -0.089100
     18 H1          17.7310    64.2630    47.0780 h2         1 DLG       0.025700
     19 H2          17.1890    62.7110    44.5050 h1         1 DLG       0.073700
     20 H3          16.8790    61.9010    47.4340 hc         1 DLG       0.056700
     21 H32         16.5200    60.8780    46.0520 hc         1 DLG       0.056700
     22 H4          18.7390    60.4360    47.1710 h1         1 DLG       0.035700
     23 H5          19.2510    62.6590    47.8350 h1         1 DLG       0.048700
     24 H61         21.1490    61.1420    47.3020 h1         1 DLG       0.025700
     25 H62         21.2950    61.8950    45.7100 h1         1 DLG       0.025700
     26 HO2         15.0410    62.7880    45.4430 ho         1 DLG       0.404000
     27 HO4         19.7180    60.1720    45.1720 ho         1 DLG       0.402000
     28 HO6         22.6410    62.9600    47.2350 ho         1 DLG       0.405000
     29 H111        18.2250    66.4570    46.7360 h1         1 DLG       0.031700
     30 H112        19.6050    66.1280    45.6870 h1         1 DLG       0.031700
     31 H121        18.4450    67.2640    43.7940 hc         1 DLG       0.052700
     32 H122        17.0300    67.5090    44.8050 hc         1 DLG       0.052700
     33 H131        18.2320    69.5710    44.7260 hc         1 DLG       0.038700
     34 H132        18.3760    68.9430    46.3490 hc         1 DLG       0.038700
     35 H141        20.6740    68.1000    45.8320 hc         1 DLG       0.039700
     36 H142        20.5260    68.6890    44.1910 hc         1 DLG       0.039700
     37 H151        20.4340    70.4280    46.7010 hc         1 DLG       0.035700
     38 H152        21.8500    70.1740    45.7110 hc         1 DLG       0.035700
     39 H161        20.8250    72.3280    45.1120 hc         1 DLG       0.030367
     40 H162        20.6700    71.2270    43.7470 hc         1 DLG       0.030367
     41 H163        19.2800    71.5640    44.7750 hc         1 DLG       0.030367
@<TRIPOS>BOND
     1     1     2 1   
     2     1     7 1   
     3     1    10 1   
     4     1    18 1   
     5     2     3 1   
     6     2     8 1   
     7     2    19 1   
     8     3     4 1   
     9     3    20 1   
    10     3    21 1   
    11     4     5 1   
    12     4     9 1   
    13     4    22 1   
    14     5     6 1   
    15     5    10 1   
    16     5    23 1   
    17     6    11 1   
    18     6    24 1   
    19     6    25 1   
    20     7    12 1   
    21     8    26 1   
    22     9    27 1   
    23    11    28 1   
    24    12    13 1   
    25    12    29 1   
    26    12    30 1   
    27    13    14 1   
    28    13    31 1   
    29    13    32 1   
    30    14    15 1   
    31    14    33 1   
    32    14    34 1   
    33    15    16 1   
    34    15    35 1   
    35    15    36 1   
    36    16    17 1   
    37    16    37 1   
    38    16    38 1   
    39    17    39 1   
    40    17    40 1   
    41    17    41 1   
@<TRIPOS>SUBSTRUCTURE
     1 DLG         1 TEMP              0 ****  ****    0 ROOT
