@<TRIPOS>MOLECULE
DLG
   41    41     1     0     0
SMALL
No Charge or Current Charge


@<TRIPOS>ATOM
      1 C1          17.8520    63.9860    46.1090 c6         1 DLG       0.406300
      2 C2          16.8810    62.8500    45.6130 c6         1 DLG       0.147300
      3 C3          17.1490    61.5400    46.4060 c6         1 DLG      -0.114400
      4 C4          18.6500    61.1530    46.3530 c6         1 DLG       0.147300
      5 C5          19.5070    62.3810    46.8260 c6         1 DLG       0.149300
      6 C6          21.0480    62.1040    46.8020 c3         1 DLG       0.168600
      7 O1          17.6890    65.1870    45.3310 os         1 DLG      -0.434000
      8 O2          15.4860    63.2140    45.7330 oh         1 DLG      -0.707000
      9 O4          18.9680    60.7410    45.0090 oh         1 DLG      -0.707000
     10 O5          19.2230    63.5450    46.0060 os         1 DLG      -0.468000
     11 O6          21.8310    63.2090    47.2950 oh         1 DLG      -0.707000
     12 C11         18.4040    66.3420    45.7970 c3         1 DLG       0.165600
     13 C12         18.0610    67.5150    44.8560 c3         1 DLG      -0.081400
     14 C13         18.6710    68.8720    45.2820 c3         1 DLG      -0.072400
     15 C14         20.2180    68.9210    45.2240 c3         1 DLG      -0.077400
     16 C15         20.8300    70.2760    45.6550 c3         1 DLG      -0.074400
     17 C16         20.4980    71.4560    44.7180 c3         1 DLG      -0.089100
     18 H1          17.6230    64.2120    47.1620 h2         1 DLG       0.025700
     19 H2          17.1230    62.6660    44.5550 h1         1 DLG       0.073700
     20 H3          16.8470    61.6760    47.4540 hc         1 DLG       0.056700
     21 H32         16.5360    60.7190    46.0090 hc         1 DLG       0.056700
     22 H4          18.8160    60.3160    47.0480 h1         1 DLG       0.035700
     23 H5          19.2350    62.6140    47.8660 h1         1 DLG       0.048700
     24 H61         21.2420    61.2100    47.4100 h1         1 DLG       0.025700
     25 H62         21.3440    61.8690    45.7710 h1         1 DLG       0.025700
     26 HO2         14.9700    62.5420    45.2300 ho         1 DLG       0.503000
     27 HO4         19.7450    60.1390    45.0630 ho         1 DLG       0.501000
     28 HO6         22.7780    62.9720    47.1630 ho         1 DLG       0.504000
     29 H111        18.1030    66.5940    46.8230 h1         1 DLG       0.031700
     30 H112        19.4860    66.1590    45.7860 h1         1 DLG       0.031700
     31 H121        18.3930    67.2720    43.8390 hc         1 DLG       0.052700
     32 H122        16.9700    67.6230    44.8150 hc         1 DLG       0.052700
     33 H131        18.2610    69.6470    44.6240 hc         1 DLG       0.038700
     34 H132        18.3360    69.1140    46.2980 hc         1 DLG       0.038700
     35 H141        20.6290    68.1440    45.8790 hc         1 DLG       0.039700
     36 H142        20.5530    68.6820    44.2070 hc         1 DLG       0.039700
     37 H151        20.4990    70.5180    46.6730 hc         1 DLG       0.035700
     38 H152        21.9210    70.1660    45.6990 hc         1 DLG       0.035700
     39 H161        21.0370    72.3560    45.0360 hc         1 DLG       0.030367
     40 H162        20.7930    71.2280    43.6870 hc         1 DLG       0.030367
     41 H163        19.4260    71.6840    44.7320 hc         1 DLG       0.030367
@<TRIPOS>BOND
     1     1     2 1   
     2     1     7 1   
     3     1    10 1   
     4     1    18 1   
     5     2     3 1   
     6     2     8 1   
     7     2    19 1   
     8     3     4 1   
     9     3    20 1   
    10     3    21 1   
    11     4     5 1   
    12     4     9 1   
    13     4    22 1   
    14     5     6 1   
    15     5    10 1   
    16     5    23 1   
    17     6    11 1   
    18     6    24 1   
    19     6    25 1   
    20     7    12 1   
    21     8    26 1   
    22     9    27 1   
    23    11    28 1   
    24    12    13 1   
    25    12    29 1   
    26    12    30 1   
    27    13    14 1   
    28    13    31 1   
    29    13    32 1   
    30    14    15 1   
    31    14    33 1   
    32    14    34 1   
    33    15    16 1   
    34    15    35 1   
    35    15    36 1   
    36    16    17 1   
    37    16    37 1   
    38    16    38 1   
    39    17    39 1   
    40    17    40 1   
    41    17    41 1   
@<TRIPOS>SUBSTRUCTURE
     1 DLG         1 TEMP              0 ****  ****    0 ROOT
