@<TRIPOS>MOLECULE
DLH
   42    45     1     0     0
SMALL
No Charge or Current Charge


@<TRIPOS>ATOM
      1 C10         -0.8980    -0.4050    -1.2000 c6         1 DLH       0.102500
      2 C11         -0.9780    -1.1260     1.1680 c6         1 DLH       0.102500
      3 C15          6.3530     0.2480    -0.2130 ca         1 DLH       0.123000
      4 C17          4.3470    -1.0100    -0.7780 ca         1 DLH      -0.084500
      5 C18          4.2110     1.3890    -0.3870 ca         1 DLH      -0.084500
      6 C19          5.7310    -0.9710    -0.5310 ca         1 DLH      -0.102500
      7 C20          5.5950     1.4270    -0.1410 ca         1 DLH      -0.102500
      8 C21         -6.3160     1.3880     0.4640 ca         1 DLH      -0.097000
      9 C22         -6.1210    -1.3250    -0.3530 ca         1 DLH      -0.097000
     10 C23         -7.3860    -0.7130    -0.2100 ca         1 DLH      -0.111000
     11 C24         -7.4830     0.6390     0.1970 ca         1 DLH      -0.111000
     12 C1          -2.9350     0.2170     0.2220 c5         1 DLH       0.395000
     13 C12          2.0800     0.1260    -0.9760 c3         1 DLH      -0.110100
     14 C14          3.5810     0.1700    -0.7060 ca         1 DLH      -0.065300
     15 C6          -4.9840    -0.5540    -0.0810 ca         1 DLH       0.050100
     16 C7          -5.0770     0.7510     0.3130 ca         1 DLH       0.050100
     17 C8          -2.0060     0.6420    -0.9420 c6         1 DLH      -0.114900
     18 C9          -2.0840    -0.0920     1.4770 c6         1 DLH      -0.114900
     19 N2          -0.1220    -0.6630     0.0450 n          1 DLH      -0.419800
     20 O13          1.6760    -0.1690     1.3820 o          1 DLH      -0.588100
     21 O4          -3.8610     1.3160     0.5250 os         1 DLH      -0.342100
     22 O5          -3.6980    -0.9780    -0.1660 os         1 DLH      -0.342100
     23 H1          -1.3540    -1.3470    -1.5370 h1         1 DLH       0.063200
     24 H2          -0.2610    -0.0500    -2.0200 h1         1 DLH       0.063200
     25 H3          -0.3800    -1.3080     2.0720 h1         1 DLH       0.063200
     26 H4          -1.4380    -2.0860     0.8930 h1         1 DLH       0.063200
     27 H5           3.8710    -1.9570    -1.0230 ha         1 DLH       0.115000
     28 H6           3.6290     2.3060    -0.3280 ha         1 DLH       0.115000
     29 H7           6.3200    -1.8820    -0.5860 ha         1 DLH       0.128000
     30 H8           6.0780     2.3690     0.1060 ha         1 DLH       0.128000
     31 H9          -6.3730     2.4280     0.7780 ha         1 DLH       0.132500
     32 H10         -6.0300    -2.3620    -0.6650 ha         1 DLH       0.132500
     33 H11         -8.2900    -1.2840    -0.4140 ha         1 DLH       0.119000
     34 H12         -8.4600     1.1040     0.3050 ha         1 DLH       0.119000
     35 H13          1.7030     1.0730    -1.3790 hc         1 DLH       0.065200
     36 H14          1.8390    -0.5690    -1.7870 hc         1 DLH       0.065200
     37 H15         -1.5470     1.6120    -0.7090 hc         1 DLH       0.072200
     38 H16         -2.6010     0.7870    -1.8540 hc         1 DLH       0.072200
     39 H17         -2.7310    -0.4680     2.2800 hc         1 DLH       0.072200
     40 H18         -1.6260     0.8340     1.8480 hc         1 DLH       0.072200
     41 C3           1.2140    -0.2320     0.2490 c          1 DLH       0.606100
     42 Cl           8.0840     0.2960     0.0950 cl         1 DLH      -0.204000
@<TRIPOS>BOND
     1     1    17 1   
     2     1    19 1   
     3     1    23 1   
     4     1    24 1   
     5     2    18 1   
     6     2    19 1   
     7     2    25 1   
     8     2    26 1   
     9     3     6 ar  
    10     3     7 ar  
    11     3    42 1   
    12     4     6 ar  
    13     4    14 ar  
    14     4    27 1   
    15     5     7 ar  
    16     5    14 ar  
    17     5    28 1   
    18     6    29 1   
    19     7    30 1   
    20     8    11 ar  
    21     8    16 ar  
    22     8    31 1   
    23     9    10 ar  
    24     9    15 ar  
    25     9    32 1   
    26    10    11 ar  
    27    10    33 1   
    28    11    34 1   
    29    12    17 1   
    30    12    18 1   
    31    12    21 1   
    32    12    22 1   
    33    13    14 1   
    34    13    35 1   
    35    13    36 1   
    36    13    41 1   
    37    15    16 ar  
    38    15    22 1   
    39    16    21 1   
    40    17    37 1   
    41    17    38 1   
    42    18    39 1   
    43    18    40 1   
    44    19    41 1   
    45    20    41 2   
@<TRIPOS>SUBSTRUCTURE
     1 DLH         1 TEMP              0 ****  ****    0 ROOT
