@<TRIPOS>MOLECULE
DLH
   42    45     1     0     0
SMALL
abcg2


@<TRIPOS>ATOM
      1 C10         -0.8380    -0.4780    -1.2830 c6         1 DLH       0.102500
      2 C11         -1.0070    -1.0000     1.0820 c6         1 DLH       0.102500
      3 C15          6.1660     0.3390    -0.0320 ca         1 DLH       0.123000
      4 C17          4.3690    -0.9550    -0.9340 ca         1 DLH      -0.084500
      5 C18          3.9560     1.2490    -0.1110 ca         1 DLH      -0.084500
      6 C19          5.7130    -0.8360    -0.6100 ca         1 DLH      -0.102500
      7 C20          5.2940     1.3870     0.2200 ca         1 DLH      -0.102500
      8 C21         -6.2070     1.4500     0.4730 ca         1 DLH      -0.097000
      9 C22         -6.0390    -1.3170    -0.1400 ca         1 DLH      -0.097000
     10 C23         -7.2700    -0.7040     0.1250 ca         1 DLH      -0.111000
     11 C24         -7.3520     0.6460     0.4240 ca         1 DLH      -0.111000
     12 C1          -2.8470     0.3080    -0.0090 c5         1 DLH       0.395000
     13 C12          2.0240    -0.0600    -1.0420 c3         1 DLH      -0.110100
     14 C14          3.4750     0.0800    -0.6920 ca         1 DLH      -0.065300
     15 C6          -4.9260    -0.5150    -0.0890 ca         1 DLH       0.050100
     16 C7          -5.0080     0.8360     0.2100 ca         1 DLH       0.050100
     17 C8          -1.9110     0.6010    -1.1660 c6         1 DLH      -0.114900
     18 C9          -2.0790     0.0660     1.2770 c6         1 DLH      -0.114900
     19 N2          -0.1350    -0.6420    -0.0240 n          1 DLH      -0.419800
     20 O13          1.7110    -0.5810     1.2670 o          1 DLH      -0.588100
     21 O4          -3.7660     1.3800     0.1770 os         1 DLH      -0.342100
     22 O5          -3.6330    -0.8460    -0.3200 os         1 DLH      -0.342100
     23 H1          -1.2920    -1.4320    -1.5640 h1         1 DLH       0.063200
     24 H2          -0.1540    -0.2220    -2.0860 h1         1 DLH       0.063200
     25 H3          -0.4230    -1.1130     1.9900 h1         1 DLH       0.063200
     26 H4          -1.4680    -1.9700     0.8730 h1         1 DLH       0.063200
     27 H5           4.0210    -1.8760    -1.3850 ha         1 DLH       0.115000
     28 H6           3.2830     2.0740     0.0840 ha         1 DLH       0.115000
     29 H7           6.3960    -1.6500    -0.8100 ha         1 DLH       0.128000
     30 H8           5.6530     2.3030     0.6680 ha         1 DLH       0.128000
     31 H9          -6.2680     2.5050     0.7040 ha         1 DLH       0.132500
     32 H10         -5.9700    -2.3700    -0.3750 ha         1 DLH       0.132500
     33 H11         -8.1700    -1.3020     0.0920 ha         1 DLH       0.119000
     34 H12         -8.3160     1.0910     0.6280 ha         1 DLH       0.119000
     35 H13          1.6520     0.8790    -1.4610 hc         1 DLH       0.065200
     36 H14          1.9000    -0.8060    -1.8300 hc         1 DLH       0.065200
     37 H15         -1.4400     1.5730    -1.0020 hc         1 DLH       0.072200
     38 H16         -2.4750     0.6620    -2.0990 hc         1 DLH       0.072200
     39 H17         -2.7650    -0.2370     2.0720 hc         1 DLH       0.072200
     40 H18         -1.6090     1.0020     1.5880 hc         1 DLH       0.072200
     41 C3           1.1870    -0.4490     0.1700 c          1 DLH       0.606100
     42 CL           7.8400     0.5030     0.3730 cl         1 DLH      -0.204000
@<TRIPOS>BOND
     1     1    17 1   
     2     1    19 1   
     3     1    23 1   
     4     1    24 1   
     5     2    18 1   
     6     2    19 1   
     7     2    25 1   
     8     2    26 1   
     9     3     6 ar  
    10     3     7 ar  
    11     3    42 1   
    12     4     6 ar  
    13     4    14 ar  
    14     4    27 1   
    15     5     7 ar  
    16     5    14 ar  
    17     5    28 1   
    18     6    29 1   
    19     7    30 1   
    20     8    11 ar  
    21     8    16 ar  
    22     8    31 1   
    23     9    10 ar  
    24     9    15 ar  
    25     9    32 1   
    26    10    11 ar  
    27    10    33 1   
    28    11    34 1   
    29    12    17 1   
    30    12    18 1   
    31    12    21 1   
    32    12    22 1   
    33    13    14 1   
    34    13    35 1   
    35    13    36 1   
    36    13    41 1   
    37    15    16 ar  
    38    15    22 1   
    39    16    21 1   
    40    17    37 1   
    41    17    38 1   
    42    18    39 1   
    43    18    40 1   
    44    19    41 1   
    45    20    41 2   
@<TRIPOS>SUBSTRUCTURE
     1 DLH         1 TEMP              0 ****  ****    0 ROOT
