@<TRIPOS>MOLECULE
DLI
   50    53     1     0     0
SMALL
No Charge or Current Charge


@<TRIPOS>ATOM
      1 C4           2.5590     0.0200     2.8520 ca         1 DLI       0.184000
      2 C5           3.8610     0.0430     3.3760 ca         1 DLI      -0.172000
      3 C6           4.6980    -1.0690     3.2170 ca         1 DLI       0.167000
      4 C7           0.6310    -1.1160     1.5890 c5         1 DLI      -0.078400
      5 C8           0.6860    -1.3780     0.0560 c5         1 DLI       0.238800
      6 C10          3.7770     0.2070    -6.3040 c3         1 DLI      -0.337100
      7 C17         -3.0900    -2.5870    -2.7400 ca         1 DLI       0.169900
      8 C20         -0.5470    -1.7690    -2.6490 ca         1 DLI      -0.285000
      9 C21         -0.5440    -1.6340    -5.2110 cp         1 DLI      -0.169500
     10 C24         -0.6930    -1.0500    -7.5980 ca         1 DLI      -0.138000
     11 C26          1.4900    -1.4100    -6.5900 ca         1 DLI      -0.274500
     12 C1           4.2320    -2.2050     2.5320 ca         1 DLI       0.124000
     13 C2           2.9290    -2.2290     2.0070 ca         1 DLI      -0.104000
     14 C3           2.0660    -1.1150     2.1600 ca         1 DLI      -0.109300
     15 C9          -0.1490    -2.3630     2.0950 c5         1 DLI       0.153500
     16 F10          1.7790     1.1110     3.0220 f          1 DLI      -0.170000
     17 N11         -0.6690    -1.9380    -0.1930 nh         1 DLI      -0.791300
     18 C12         -1.3400    -2.3650     1.0760 c5         1 DLI       0.237800
     19 F13          5.9520    -1.0410     3.7240 f          1 DLI      -0.148000
     20 C14         -1.2550    -2.0630    -1.4710 ca         1 DLI       0.395900
     21 F15          5.0350    -3.2820     2.3720 f          1 DLI      -0.151000
     22 N16         -2.5340    -2.4790    -1.5180 nb         1 DLI      -0.261000
     23 N18         -2.4920    -2.3240    -3.9170 nb         1 DLI      -0.228000
     24 C19         -1.2060    -1.9190    -3.8920 cp         1 DLI       0.203500
     25 N22         -0.5240    -2.2740     3.5270 n8         1 DLI      -0.988200
     26 C23         -1.3100    -1.3200    -6.3660 ca         1 DLI      -0.013000
     27 C25          0.7050    -1.0910    -7.7140 ca         1 DLI      -0.005000
     28 C27          0.8690    -1.6770    -5.3520 ca         1 DLI      -0.002000
     29 S1           3.2890    -1.4630    -6.7300 sy         1 DLI       1.057500
     30 O2           3.8220    -2.3360    -5.6770 o          1 DLI      -0.522500
     31 O1           3.6520    -1.6600    -8.1400 o          1 DLI      -0.522500
     32 H5           4.2190     0.9220     3.9040 ha         1 DLI       0.158000
     33 H7           0.0760    -0.1940     1.7950 hc         1 DLI       0.077700
     34 H81          0.8650    -0.4440    -0.4950 h1         1 DLI       0.055200
     35 H82          1.4620    -2.1020    -0.2270 h1         1 DLI       0.055200
     36 H101         3.4310     0.4150    -5.2860 h1         1 DLI       0.102367
     37 H102         4.8690     0.2690    -6.3630 h1         1 DLI       0.102367
     38 H103         3.3110     0.8930    -7.0190 h1         1 DLI       0.102367
     39 H17         -4.1260    -2.9190    -2.7790 h5         1 DLI       0.047100
     40 H20          0.4780    -1.4240    -2.6040 ha         1 DLI       0.129000
     41 H24         -1.3010    -0.8060    -8.4650 ha         1 DLI       0.124000
     42 H2           2.6020    -3.1220     1.4810 ha         1 DLI       0.144000
     43 H9           0.4330    -3.2860     1.9600 h1         1 DLI       0.071700
     44 H121        -1.7930    -3.3630     1.0030 h1         1 DLI       0.071200
     45 H122        -2.1210    -1.6490     1.3680 h1         1 DLI       0.071200
     46 H221        -0.9770    -1.3690     3.7010 hn         1 DLI       0.406500
     47 H222         0.3330    -2.2160     4.0890 hn         1 DLI       0.406500
     48 H23         -2.3960    -1.2730    -6.3080 ha         1 DLI       0.142000
     49 H25          1.1680    -0.8760    -8.6770 ha         1 DLI       0.138000
     50 H27          1.4890    -1.9340    -4.4960 ha         1 DLI       0.134000
@<TRIPOS>BOND
     1     1     2 ar  
     2     1    14 ar  
     3     1    16 1   
     4     2     3 ar  
     5     2    32 1   
     6     3    12 ar  
     7     3    19 1   
     8     4     5 1   
     9     4    14 1   
    10     4    15 1   
    11     4    33 1   
    12     5    17 1   
    13     5    34 1   
    14     5    35 1   
    15     6    29 1   
    16     6    36 1   
    17     6    37 1   
    18     6    38 1   
    19     7    22 ar  
    20     7    23 ar  
    21     7    39 1   
    22     8    20 ar  
    23     8    24 ar  
    24     8    40 1   
    25     9    24 1   
    26     9    26 ar  
    27     9    28 ar  
    28    10    26 ar  
    29    10    27 ar  
    30    10    41 1   
    31    11    27 ar  
    32    11    28 ar  
    33    11    29 1   
    34    12    13 ar  
    35    12    21 1   
    36    13    14 ar  
    37    13    42 1   
    38    15    18 1   
    39    15    25 1   
    40    15    43 1   
    41    17    18 1   
    42    17    20 1   
    43    18    44 1   
    44    18    45 1   
    45    20    22 ar  
    46    23    24 ar  
    47    25    46 1   
    48    25    47 1   
    49    26    48 1   
    50    27    49 1   
    51    28    50 1   
    52    29    30 2   
    53    29    31 2   
@<TRIPOS>SUBSTRUCTURE
     1 DLI         1 TEMP              0 ****  ****    0 ROOT
