@<TRIPOS>MOLECULE
DLI
   50    53     1     0     0
SMALL
bcc


@<TRIPOS>ATOM
      1 C4           2.5950    -0.0750     2.8230 ca         1 DLI       0.148900
      2 C5           3.8410    -0.0500     3.4240 ca         1 DLI      -0.190000
      3 C6           4.6550    -1.1510     3.2800 ca         1 DLI       0.131900
      4 C7           0.7640    -1.1560     1.4610 c5         1 DLI      -0.078400
      5 C8           0.7430    -1.4490    -0.0370 c5         1 DLI       0.238800
      6 C10          3.6780     0.2750    -6.2590 c3         1 DLI      -0.226300
      7 C17         -2.9700    -2.6390    -2.7090 ca         1 DLI       0.695900
      8 C20         -0.4600    -1.8010    -2.6500 ca         1 DLI      -0.433600
      9 C21         -0.5020    -1.6750    -5.1420 cp         1 DLI      -0.169500
     10 C24         -0.7280    -1.0870    -7.4790 ca         1 DLI      -0.156000
     11 C26          1.4380    -1.3760    -6.5250 ca         1 DLI      -0.274500
     12 C1           4.2250    -2.2470     2.5530 ca         1 DLI       0.088900
     13 C2           2.9810    -2.2480     1.9640 ca         1 DLI      -0.122000
     14 C3           2.1290    -1.1490     2.0810 ca         1 DLI      -0.109300
     15 C9          -0.1850    -2.2300     2.0320 c5         1 DLI       0.153500
     16 F10          1.8180     1.0080     2.9750 f          1 DLI      -0.134900
     17 N11         -0.6050    -1.9490    -0.2520 nh         1 DLI      -0.791300
     18 C12         -1.2930    -2.2770     0.9840 c5         1 DLI       0.237800
     19 F13          5.8660    -1.1670     3.8380 f          1 DLI      -0.112900
     20 C14         -1.1610    -2.0920    -1.4600 ca         1 DLI       0.724200
     21 F15          5.0320    -3.3050     2.4300 f          1 DLI      -0.115900
     22 N16         -2.4310    -2.5190    -1.5110 nb         1 DLI      -0.787000
     23 N18         -2.4090    -2.3910    -3.8770 nb         1 DLI      -0.754000
     24 C19         -1.1350    -1.9700    -3.8380 cp         1 DLI       0.531800
     25 N22         -0.7050    -2.0230     3.3590 n8         1 DLI      -0.877800
     26 C23         -1.2980    -1.3890    -6.2520 ca         1 DLI      -0.031000
     27 C25          0.6500    -1.0770    -7.6280 ca         1 DLI      -0.023000
     28 C27          0.8820    -1.6770    -5.2920 ca         1 DLI      -0.020000
     29 S1           3.2070    -1.3830    -6.6950 sy         1 DLI       1.088300
     30 O2           3.7570    -2.2990    -5.6980 o          1 DLI      -0.593300
     31 O1           3.5290    -1.6010    -8.1030 o          1 DLI      -0.593300
     32 H5           4.1690     0.8110     3.9920 ha         1 DLI       0.176000
     33 H7           0.2880    -0.1850     1.6190 hc         1 DLI       0.077700
     34 H81          0.9410    -0.5500    -0.6230 h1         1 DLI       0.055200
     35 H82          1.4880    -2.2000    -0.3170 h1         1 DLI       0.055200
     36 H101         3.3850     0.4730    -5.2310 h1         1 DLI       0.102367
     37 H102         4.7610     0.3420    -6.3600 h1         1 DLI       0.102367
     38 H103         3.1960     0.9770    -6.9340 h1         1 DLI       0.102367
     39 H17         -3.9990    -2.9850    -2.7340 h5         1 DLI       0.047100
     40 H20          0.5570    -1.4400    -2.6250 ha         1 DLI       0.147000
     41 H24         -1.3610    -0.8610    -8.3260 ha         1 DLI       0.142000
     42 H2           2.6760    -3.1230     1.4030 ha         1 DLI       0.162000
     43 H9           0.3390    -3.1920     2.0250 h1         1 DLI       0.071700
     44 H121        -1.7690    -3.2560     0.9330 h1         1 DLI       0.071200
     45 H122        -2.0720    -1.5390     1.2080 h1         1 DLI       0.071200
     46 H221        -1.0870    -1.0880     3.4450 hn         1 DLI       0.351300
     47 H222         0.0360    -2.0970     4.0440 hn         1 DLI       0.351300
     48 H23         -2.3730    -1.3980    -6.1470 ha         1 DLI       0.160000
     49 H25          1.0940    -0.8450    -8.5870 ha         1 DLI       0.156000
     50 H27          1.5240    -1.9310    -4.4580 ha         1 DLI       0.152000
@<TRIPOS>BOND
     1     1     2 ar  
     2     1    14 ar  
     3     1    16 1   
     4     2     3 ar  
     5     2    32 1   
     6     3    12 ar  
     7     3    19 1   
     8     4     5 1   
     9     4    14 1   
    10     4    15 1   
    11     4    33 1   
    12     5    17 1   
    13     5    34 1   
    14     5    35 1   
    15     6    29 1   
    16     6    36 1   
    17     6    37 1   
    18     6    38 1   
    19     7    22 ar  
    20     7    23 ar  
    21     7    39 1   
    22     8    20 ar  
    23     8    24 ar  
    24     8    40 1   
    25     9    24 1   
    26     9    26 ar  
    27     9    28 ar  
    28    10    26 ar  
    29    10    27 ar  
    30    10    41 1   
    31    11    27 ar  
    32    11    28 ar  
    33    11    29 1   
    34    12    13 ar  
    35    12    21 1   
    36    13    14 ar  
    37    13    42 1   
    38    15    18 1   
    39    15    25 1   
    40    15    43 1   
    41    17    18 1   
    42    17    20 1   
    43    18    44 1   
    44    18    45 1   
    45    20    22 ar  
    46    23    24 ar  
    47    25    46 1   
    48    25    47 1   
    49    26    48 1   
    50    27    49 1   
    51    28    50 1   
    52    29    30 2   
    53    29    31 2   
@<TRIPOS>SUBSTRUCTURE
     1 DLI         1 TEMP              0 ****  ****    0 ROOT
