@<TRIPOS>MOLECULE
DLJ
   52    55     1     0     0
SMALL
abcg2


@<TRIPOS>ATOM
      1 C10          2.5720    -0.0760     0.3640 c3         1 DLJ       0.161600
      2 C15          6.4860    -2.3010     0.3640 c5         1 DLJ       0.171800
      3 C17          5.2660    -0.7850     1.7780 c5         1 DLJ      -0.080400
      4 C20         -1.0920    -1.4800    -1.2140 cc         1 DLJ      -0.339800
      5 C21         -2.4820    -1.7910    -1.3190 ca         1 DLJ       0.295800
      6 C22         -3.1560    -1.0070    -0.3520 ca         1 DLJ      -0.055200
      7 C28         -4.4280    -2.7110    -1.9900 ca         1 DLJ       0.285900
      8 C02         -0.2980     2.6590     0.6350 ca         1 DLJ       0.135000
      9 C03         -0.3490     3.9730     0.1890 ca         1 DLJ      -0.106000
     10 C04          0.0760     4.2700    -1.0950 ca         1 DLJ      -0.105000
     11 C05          0.5410     3.2560    -1.9230 ca         1 DLJ      -0.120000
     12 C06          0.5820     1.9520    -1.4590 ca         1 DLJ      -0.076000
     13 C07          0.1720     1.6270    -0.1680 ca         1 DLJ      -0.108300
     14 C08          0.2310     0.1730     0.2820 c3         1 DLJ       0.286800
     15 C11          3.6970    -0.8930    -0.2370 c3         1 DLJ      -0.112400
     16 C12          5.0680    -0.4390     0.2830 c5         1 DLJ       0.188500
     17 C16          6.3790    -1.8480     1.8130 c5         1 DLJ      -0.078400
     18 C18         -0.9820    -0.5480    -0.2200 cd         1 DLJ      -0.094300
     19 C23         -4.5370    -1.0840    -0.1980 ca         1 DLJ      -0.109600
     20 C27         -5.1660    -1.9720    -1.0590 ca         1 DLJ      -0.144000
     21 N13          6.2090    -1.0800    -0.3600 n3         1 DLJ      -0.745600
     22 N19         -2.2160    -0.2660     0.2930 na         1 DLJ      -0.184700
     23 N29         -3.1140    -2.6400    -2.1330 nb         1 DLJ      -0.667000
     24 O09          1.3510    -0.4850    -0.2260 os         1 DLJ      -0.442000
     25 O25         -4.5760     0.4870     1.5460 o          1 DLJ      -0.721000
     26 O26         -6.5170    -0.3930     0.8810 o          1 DLJ      -0.721000
     27 CL1         -0.8600     2.3340     2.2520 cl         1 DLJ      -0.198000
     28 H1           2.5170    -0.2100     1.4530 h1         1 DLJ       0.024200
     29 H2           2.7520     0.9910     0.1820 h1         1 DLJ       0.024200
     30 H3           7.4760    -2.6860     0.1080 h1         1 DLJ       0.032200
     31 H4           5.7610    -3.1050     0.1480 h1         1 DLJ       0.032200
     32 H5           5.5320     0.0950     2.3630 hc         1 DLJ       0.046700
     33 H6           4.3430    -1.1780     2.2080 hc         1 DLJ       0.046700
     34 H7          -0.2880    -1.8910    -1.8040 ha         1 DLJ       0.200000
     35 H8          -4.9470    -3.3980    -2.6500 h4         1 DLJ      -0.011900
     36 H9          -0.7160     4.7540     0.8410 ha         1 DLJ       0.126000
     37 H10          0.0410     5.2930    -1.4450 ha         1 DLJ       0.108000
     38 H11          0.8710     3.4810    -2.9280 ha         1 DLJ       0.109000
     39 H12          0.9470     1.1640    -2.1070 ha         1 DLJ       0.130000
     40 H13          0.2370     0.1370     1.3810 h1         1 DLJ       0.055700
     41 H14          3.5430    -1.9550    -0.0230 hc         1 DLJ       0.056700
     42 H15          3.6530    -0.7720    -1.3230 hc         1 DLJ       0.056700
     43 H16          5.1400     0.6440     0.1170 h1         1 DLJ       0.059700
     44 H17          5.4620    -1.9240    -2.1830 h1         1 DLJ       0.027700
     45 H18          5.9600    -0.2280    -2.2460 h1         1 DLJ       0.027700
     46 H19          7.1740    -1.5000    -2.1520 h1         1 DLJ       0.027700
     47 H20          6.1550    -2.6680     2.4940 hc         1 DLJ       0.044200
     48 H21          7.3240    -1.4050     2.1310 hc         1 DLJ       0.044200
     49 H22         -6.2390    -2.0980    -1.0130 ha         1 DLJ       0.129000
     50 H24         -2.4510     0.3620     1.0480 hn         1 DLJ       0.394000
     51 C14          6.1880    -1.1950    -1.7940 c3         1 DLJ       0.172100
     52 C24         -5.2840    -0.2580     0.8350 c          1 DLJ       0.722600
@<TRIPOS>BOND
     1     1    15 1   
     2     1    24 1   
     3     1    28 1   
     4     1    29 1   
     5     2    17 1   
     6     2    21 1   
     7     2    30 1   
     8     2    31 1   
     9     3    16 1   
    10     3    17 1   
    11     3    32 1   
    12     3    33 1   
    13     4     5 1   
    14     4    18 2   
    15     4    34 1   
    16     5     6 ar  
    17     5    23 ar  
    18     6    19 ar  
    19     6    22 1   
    20     7    20 ar  
    21     7    23 ar  
    22     7    35 1   
    23     8     9 ar  
    24     8    13 ar  
    25     8    27 1   
    26     9    10 ar  
    27     9    36 1   
    28    10    11 ar  
    29    10    37 1   
    30    11    12 ar  
    31    11    38 1   
    32    12    13 ar  
    33    12    39 1   
    34    13    14 1   
    35    14    18 1   
    36    14    24 1   
    37    14    40 1   
    38    15    16 1   
    39    15    41 1   
    40    15    42 1   
    41    16    21 1   
    42    16    43 1   
    43    17    47 1   
    44    17    48 1   
    45    18    22 1   
    46    19    20 ar  
    47    19    52 1   
    48    20    49 1   
    49    21    51 1   
    50    22    50 1   
    51    25    52 1   
    52    26    52 1   
    53    44    51 1   
    54    45    51 1   
    55    46    51 1   
@<TRIPOS>SUBSTRUCTURE
     1 DLJ         1 TEMP              0 ****  ****    0 ROOT
