@<TRIPOS>MOLECULE
DLJ
   52    55     1     0     0
SMALL
No Charge or Current Charge


@<TRIPOS>ATOM
      1 C10          2.6000     0.0700     0.4000 c3         1 DLJ       0.161600
      2 C15          6.2300    -2.4520     0.3430 c5         1 DLJ       0.171800
      3 C17          5.4650    -0.5910     1.7570 c5         1 DLJ      -0.080400
      4 C20         -1.1670    -1.2880    -1.3080 cc         1 DLJ      -0.339800
      5 C21         -2.5200    -1.7310    -1.3470 ca         1 DLJ       0.295800
      6 C22         -3.1690    -1.1450    -0.2910 ca         1 DLJ      -0.055200
      7 C28         -4.3850    -2.8270    -2.0590 ca         1 DLJ       0.285900
      8 C02         -0.1880     2.8420     0.6110 ca         1 DLJ       0.135000
      9 C03         -0.1710     4.1610     0.1240 ca         1 DLJ      -0.106000
     10 C04          0.2230     4.4250    -1.1970 ca         1 DLJ      -0.105000
     11 C05          0.5950     3.3660    -2.0390 ca         1 DLJ      -0.120000
     12 C06          0.5790     2.0460    -1.5570 ca         1 DLJ      -0.076000
     13 C07          0.1990     1.7680    -0.2250 ca         1 DLJ      -0.108300
     14 C08          0.1860     0.3170     0.2710 c3         1 DLJ       0.286800
     15 C11          3.7340    -0.7720    -0.2120 c3         1 DLJ      -0.112400
     16 C12          5.1580    -0.3440     0.2540 c5         1 DLJ       0.188500
     17 C16          5.7880    -2.1160     1.8010 c5         1 DLJ      -0.078400
     18 C18         -1.0360    -0.4380    -0.2120 cd         1 DLJ      -0.094300
     19 C23         -4.5410    -1.3940    -0.0650 ca         1 DLJ      -0.109600
     20 C27         -5.1470    -2.2740    -1.0020 ca         1 DLJ      -0.144000
     21 N13          6.2860    -1.1230    -0.3140 n3         1 DLJ      -0.745600
     22 N19         -2.2960    -0.3410     0.4310 na         1 DLJ      -0.184700
     23 N29         -3.0680    -2.5650    -2.2460 nb         1 DLJ      -0.667000
     24 O09          1.3670    -0.3690    -0.1930 os         1 DLJ      -0.442000
     25 O25         -4.7480    -0.0300     1.8630 o          1 DLJ      -0.721000
     26 O26         -6.5120    -1.0560     1.1900 o          1 DLJ      -0.721000
     27 Cl1         -0.7180     2.5790     2.2730 cl         1 DLJ      -0.198000
     28 H1           2.5740    -0.0690     1.4880 h1         1 DLJ       0.024200
     29 H2           2.7830     1.1320     0.1890 h1         1 DLJ       0.024200
     30 H3           7.2030    -2.9600     0.3160 h1         1 DLJ       0.032200
     31 H4           5.4970    -3.1100    -0.1440 h1         1 DLJ       0.032200
     32 H5           6.3340    -0.0020     2.0720 hc         1 DLJ       0.046700
     33 H6           4.6410    -0.3150     2.4230 hc         1 DLJ       0.046700
     34 H7          -0.3770    -1.5560    -2.0010 ha         1 DLJ       0.200000
     35 H8          -4.8470    -3.5010    -2.7790 h4         1 DLJ      -0.011900
     36 H9          -0.4690     4.9800     0.7740 ha         1 DLJ       0.126000
     37 H10          0.2330     5.4480    -1.5700 ha         1 DLJ       0.108000
     38 H11          0.8940     3.5660    -3.0650 ha         1 DLJ       0.109000
     39 H12          0.8640     1.2330    -2.2230 ha         1 DLJ       0.130000
     40 H13          0.1740     0.2920     1.3680 h1         1 DLJ       0.055700
     41 H14          3.5430    -1.8260     0.0190 hc         1 DLJ       0.056700
     42 H15          3.6670    -0.6760    -1.3020 hc         1 DLJ       0.056700
     43 H16          5.2700     0.7250     0.0180 h1         1 DLJ       0.059700
     44 H17          5.5880    -1.6540    -2.2620 h1         1 DLJ       0.027700
     45 H18          6.4730    -0.1100    -2.1780 h1         1 DLJ       0.027700
     46 H19          7.3560    -1.6500    -2.0760 h1         1 DLJ       0.027700
     47 H20          4.9100    -2.7070     2.0850 hc         1 DLJ       0.044200
     48 H21          6.5760    -2.3390     2.5290 hc         1 DLJ       0.044200
     49 H22         -6.1990    -2.5330    -0.9200 ha         1 DLJ       0.129000
     50 H24         -2.5330     0.2100     1.2530 hn         1 DLJ       0.394000
     51 C14          6.4310    -1.1350    -1.7860 c3         1 DLJ       0.172100
     52 C24         -5.3250    -0.7780     1.0850 c          1 DLJ       0.722600
@<TRIPOS>BOND
     1     1    15 1   
     2     1    24 1   
     3     1    28 1   
     4     1    29 1   
     5     2    17 1   
     6     2    21 1   
     7     2    30 1   
     8     2    31 1   
     9     3    16 1   
    10     3    17 1   
    11     3    32 1   
    12     3    33 1   
    13     4     5 1   
    14     4    18 2   
    15     4    34 1   
    16     5     6 ar  
    17     5    23 ar  
    18     6    19 ar  
    19     6    22 1   
    20     7    20 ar  
    21     7    23 ar  
    22     7    35 1   
    23     8     9 ar  
    24     8    13 ar  
    25     8    27 1   
    26     9    10 ar  
    27     9    36 1   
    28    10    11 ar  
    29    10    37 1   
    30    11    12 ar  
    31    11    38 1   
    32    12    13 ar  
    33    12    39 1   
    34    13    14 1   
    35    14    18 1   
    36    14    24 1   
    37    14    40 1   
    38    15    16 1   
    39    15    41 1   
    40    15    42 1   
    41    16    21 1   
    42    16    43 1   
    43    17    47 1   
    44    17    48 1   
    45    18    22 1   
    46    19    20 ar  
    47    19    52 1   
    48    20    49 1   
    49    21    51 1   
    50    22    50 1   
    51    25    52 1   
    52    26    52 1   
    53    44    51 1   
    54    45    51 1   
    55    46    51 1   
@<TRIPOS>SUBSTRUCTURE
     1 DLJ         1 TEMP              0 ****  ****    0 ROOT
