@<TRIPOS>MOLECULE
DLK
   46    48     1     0     0
SMALL
No Charge or Current Charge


@<TRIPOS>ATOM
      1 C12         -1.4010     0.7810     0.9320 c6         1 DLK      -0.167400
      2 C13          1.6050    -3.2100     0.5660 c3         1 DLK      -0.092900
      3 C14          1.2050    -1.8570     1.1310 c2         1 DLK       0.317800
      4 C15          3.3780    -0.6490     0.7710 ca         1 DLK       0.213000
      5 C01         -3.7240     0.7080    -0.1320 ca         1 DLK      -0.076300
      6 C02         -4.9870     0.9710     0.4350 ca         1 DLK      -0.104500
      7 C03         -5.9620     1.6770    -0.2910 ca         1 DLK      -0.109500
      8 C04         -5.6820     2.1270    -1.5920 ca         1 DLK      -0.110000
      9 C05         -4.4260     1.8700    -2.1660 ca         1 DLK      -0.109500
     10 C06         -3.4510     1.1640    -1.4400 ca         1 DLK      -0.104500
     11 C07         -2.6680    -0.0650     0.6740 c6         1 DLK      -0.002400
     12 C08         -2.2650    -1.3890    -0.0120 c6         1 DLK      -0.167400
     13 C09         -1.2170    -2.1590     0.7930 c          1 DLK       0.613800
     14 C10         -0.0530    -1.3840     1.2900 ce         1 DLK      -0.498400
     15 C11         -0.3320     0.0150     1.7120 c          1 DLK       0.613800
     16 C16          4.5460    -1.4330     0.7920 ca         1 DLK      -0.078000
     17 C17          5.6800    -1.0430     0.0590 ca         1 DLK      -0.138000
     18 C18          5.6580     0.1400    -0.6950 ca         1 DLK      -0.067000
     19 C19          4.5030     0.9420    -0.7140 ca         1 DLK      -0.191000
     20 C20          3.3580     0.5560     0.0210 ca         1 DLK       0.143100
     21 C21          2.0820     2.5490    -0.7120 c3         1 DLK       0.147900
     22 N01          2.2560    -1.0430     1.5160 nu         1 DLK      -0.800000
     23 O01          0.3230     0.5690     2.5860 o          1 DLK      -0.604100
     24 O02         -1.3200    -3.3660     0.9580 o          1 DLK      -0.604100
     25 O03          2.2030     1.3240     0.0310 os         1 DLK      -0.330100
     26 H1          -0.9530     0.9990    -0.0460 hc         1 DLK       0.069700
     27 H2          -1.6180     1.7370     1.4260 hc         1 DLK       0.069700
     28 H3           2.6780    -3.3020     0.3770 hc         1 DLK       0.072367
     29 H4           1.3290    -4.0120     1.2590 hc         1 DLK       0.072367
     30 H5           1.1000    -3.3990    -0.3870 hc         1 DLK       0.072367
     31 H6          -5.2190     0.6300     1.4420 ha         1 DLK       0.111000
     32 H7          -6.9340     1.8760     0.1550 ha         1 DLK       0.111500
     33 H8          -6.4360     2.6730    -2.1540 ha         1 DLK       0.112000
     34 H9          -4.2080     2.2170    -3.1730 ha         1 DLK       0.111500
     35 H10         -2.4840     0.9730    -1.9000 ha         1 DLK       0.111000
     36 H11         -3.0990    -0.3190     1.6540 hc         1 DLK       0.059700
     37 H12         -3.1260    -2.0340    -0.2310 hc         1 DLK       0.069700
     38 H13         -1.7790    -1.1240    -0.9600 hc         1 DLK       0.069700
     39 H14          4.5770    -2.3420     1.3870 ha         1 DLK       0.127000
     40 H15          6.5780    -1.6570     0.0800 ha         1 DLK       0.123000
     41 H16          6.5380     0.4400    -1.2610 ha         1 DLK       0.117000
     42 H17          4.5170     1.8550    -1.3020 ha         1 DLK       0.123000
     43 H18          2.8280     3.2820    -0.3800 h1         1 DLK       0.045367
     44 H19          2.2160     2.3700    -1.7860 h1         1 DLK       0.045367
     45 H20          1.0870     2.9860    -0.5620 h1         1 DLK       0.045367
     46 H22          1.8720    -0.2410     2.0340 hn         1 DLK       0.566000
@<TRIPOS>BOND
     1     1    11 1   
     2     1    15 1   
     3     1    26 1   
     4     1    27 1   
     5     2     3 1   
     6     2    28 1   
     7     2    29 1   
     8     2    30 1   
     9     3    14 2   
    10     3    22 1   
    11     4    16 ar  
    12     4    20 ar  
    13     4    22 1   
    14     5     6 ar  
    15     5    10 ar  
    16     5    11 1   
    17     6     7 ar  
    18     6    31 1   
    19     7     8 ar  
    20     7    32 1   
    21     8     9 ar  
    22     8    33 1   
    23     9    10 ar  
    24     9    34 1   
    25    10    35 1   
    26    11    12 1   
    27    11    36 1   
    28    12    13 1   
    29    12    37 1   
    30    12    38 1   
    31    13    14 1   
    32    13    24 2   
    33    14    15 1   
    34    15    23 2   
    35    16    17 ar  
    36    16    39 1   
    37    17    18 ar  
    38    17    40 1   
    39    18    19 ar  
    40    18    41 1   
    41    19    20 ar  
    42    19    42 1   
    43    20    25 1   
    44    21    25 1   
    45    21    43 1   
    46    21    44 1   
    47    21    45 1   
    48    22    46 1   
@<TRIPOS>SUBSTRUCTURE
     1 DLK         1 TEMP              0 ****  ****    0 ROOT
