@<TRIPOS>MOLECULE
DLK
   46    48     1     0     0
SMALL
abcg2


@<TRIPOS>ATOM
      1 C12         -1.9980     1.0940     0.1520 c6         1 DLK      -0.167400
      2 C13          1.7790    -2.3090    -0.4730 c3         1 DLK      -0.092900
      3 C14          1.2400    -1.0080     0.0300 c2         1 DLK       0.317800
      4 C15          3.4930    -0.3050     0.6980 ca         1 DLK       0.213000
      5 C01         -4.4040     0.3640     0.1650 ca         1 DLK      -0.076300
      6 C02         -5.3080     0.2660     1.2190 ca         1 DLK      -0.104500
      7 C03         -6.6340     0.6500     1.0620 ca         1 DLK      -0.109500
      8 C04         -7.0770     1.1390    -0.1580 ca         1 DLK      -0.110000
      9 C05         -6.1840     1.2430    -1.2180 ca         1 DLK      -0.109500
     10 C06         -4.8610     0.8590    -1.0560 ca         1 DLK      -0.104500
     11 C07         -2.9690    -0.0600     0.3500 c6         1 DLK      -0.002400
     12 C08         -2.5690    -1.1810    -0.5970 c6         1 DLK      -0.167400
     13 C09         -1.1440    -1.6490    -0.3910 c          1 DLK       0.613800
     14 C10         -0.1400    -0.6550    -0.0280 ce         1 DLK      -0.498400
     15 C11         -0.5510     0.6920     0.3060 c          1 DLK       0.613800
     16 C16          3.9830    -1.2850     1.5480 ca         1 DLK      -0.078000
     17 C17          5.3480    -1.4140     1.7600 ca         1 DLK      -0.138000
     18 C18          6.2180    -0.5390     1.1310 ca         1 DLK      -0.067000
     19 C19          5.7410     0.4590     0.2890 ca         1 DLK      -0.191000
     20 C20          4.3730     0.5830     0.0630 ca         1 DLK       0.143100
     21 C21          4.6420     2.4480    -1.3760 c3         1 DLK       0.147900
     22 N01          2.1070    -0.1300     0.5000 nu         1 DLK      -0.800000
     23 O01          0.2370     1.5690     0.6900 o          1 DLK      -0.604100
     24 O02         -0.9010    -2.8400    -0.5410 o          1 DLK      -0.604100
     25 O03          3.8080     1.5010    -0.7350 os         1 DLK      -0.330100
     26 H1          -2.1120     1.5050    -0.8580 hc         1 DLK       0.069700
     27 H2          -2.2010     1.9090     0.8480 hc         1 DLK       0.069700
     28 H3           2.8450    -2.2310    -0.6740 hc         1 DLK       0.072367
     29 H4           1.6290    -3.1050     0.2570 hc         1 DLK       0.072367
     30 H5           1.2730    -2.6100    -1.3840 hc         1 DLK       0.072367
     31 H6          -4.9700    -0.1140     2.1760 ha         1 DLK       0.111000
     32 H7          -7.3210     0.5660     1.8950 ha         1 DLK       0.111500
     33 H8          -8.1100     1.4380    -0.2840 ha         1 DLK       0.112000
     34 H9          -6.5200     1.6230    -2.1740 ha         1 DLK       0.111500
     35 H10         -4.1820     0.9470    -1.8970 ha         1 DLK       0.111000
     36 H11         -2.8610    -0.4220     1.3780 hc         1 DLK       0.059700
     37 H12         -3.2300    -2.0420    -0.4930 hc         1 DLK       0.069700
     38 H13         -2.6550    -0.8370    -1.6350 hc         1 DLK       0.069700
     39 H14          3.2880    -1.9450     2.0510 ha         1 DLK       0.127000
     40 H15          5.7230    -2.1840     2.4200 ha         1 DLK       0.123000
     41 H16          7.2850    -0.6220     1.2930 ha         1 DLK       0.117000
     42 H17          6.4460     1.1270    -0.1870 ha         1 DLK       0.123000
     43 H18          5.2020     3.0510    -0.6570 h1         1 DLK       0.045367
     44 H19          5.3460     1.9710    -2.0620 h1         1 DLK       0.045367
     45 H20          3.9850     3.1000    -1.9460 h1         1 DLK       0.045367
     46 H22          1.6850     0.7840     0.7260 hn         1 DLK       0.566000
@<TRIPOS>BOND
     1     1    11 1   
     2     1    15 1   
     3     1    26 1   
     4     1    27 1   
     5     2     3 1   
     6     2    28 1   
     7     2    29 1   
     8     2    30 1   
     9     3    14 2   
    10     3    22 1   
    11     4    16 ar  
    12     4    20 ar  
    13     4    22 1   
    14     5     6 ar  
    15     5    10 ar  
    16     5    11 1   
    17     6     7 ar  
    18     6    31 1   
    19     7     8 ar  
    20     7    32 1   
    21     8     9 ar  
    22     8    33 1   
    23     9    10 ar  
    24     9    34 1   
    25    10    35 1   
    26    11    12 1   
    27    11    36 1   
    28    12    13 1   
    29    12    37 1   
    30    12    38 1   
    31    13    14 1   
    32    13    24 2   
    33    14    15 1   
    34    15    23 2   
    35    16    17 ar  
    36    16    39 1   
    37    17    18 ar  
    38    17    40 1   
    39    18    19 ar  
    40    18    41 1   
    41    19    20 ar  
    42    19    42 1   
    43    20    25 1   
    44    21    25 1   
    45    21    43 1   
    46    21    44 1   
    47    21    45 1   
    48    22    46 1   
@<TRIPOS>SUBSTRUCTURE
     1 DLK         1 TEMP              0 ****  ****    0 ROOT
