@<TRIPOS>MOLECULE
DLM
   33    35     1     0     0
SMALL
bcc


@<TRIPOS>ATOM
      1 O12          0.6660     0.5060     0.2530 os         1 DLM      -0.040000
      2 C11         -0.0940    -0.4670    -0.2080 c2         1 DLM       0.251000
      3 C14         -1.5170    -0.1800    -0.1390 ca         1 DLM      -0.052000
      4 C15         -1.9760     0.6730     0.8690 ca         1 DLM      -0.132000
      5 C1           4.7450     0.4480     0.4260 ca         1 DLM      -0.283000
      6 C2           4.1030    -0.6410    -0.1090 ca         1 DLM       0.223000
      7 C3           2.6750    -0.6550    -0.1670 ca         1 DLM      -0.218000
      8 C18         -3.7430    -0.3780    -1.0200 ca         1 DLM       0.123500
      9 C19         -2.3960    -0.7020    -1.0900 ca         1 DLM      -0.132000
     10 C17         -4.2130     0.4450     0.0040 ca         1 DLM      -0.084000
     11 O24         -5.5330     0.7850     0.0510 oh         1 DLM      -0.270000
     12 C16         -3.3270     0.9750     0.9440 ca         1 DLM       0.123500
     13 C10          0.5140    -1.6370    -0.6610 c2         1 DLM      -0.013000
     14 O27         -0.2650    -2.6400    -1.0680 oh         1 DLM      -0.206000
     15 C9           1.9000    -1.7080    -0.6400 c2         1 DLM      -0.035000
     16 C4           2.0000     0.4860     0.3200 ca         1 DLM       0.164000
     17 C5           2.6300     1.5850     0.8570 ca         1 DLM      -0.227000
     18 C6           4.0190     1.5510     0.9090 ca         1 DLM       0.246000
     19 O29          4.6310     2.6060     1.4270 oh         1 DLM      -0.194000
     20 O30          4.8520    -1.6490    -0.5440 oh         1 DLM      -0.203000
     21 H1          -1.3090     1.0860     1.6140 ha         1 DLM       0.171000
     22 H2           5.8280     0.4520     0.4690 ha         1 DLM       0.185000
     23 H3          -4.6940     1.9780     1.8110 ho         1 DLM       0.255000
     24 H4          -5.4590    -0.5100    -1.8370 ho         1 DLM       0.255000
     25 H5          -2.0560    -1.3250    -1.9030 ha         1 DLM       0.171000
     26 H6          -6.0310     0.1490     0.5830 ho         1 DLM       0.237000
     27 H7           0.2590    -3.3980    -1.3540 ho         1 DLM       0.256000
     28 H8           2.3570    -2.6260    -0.9890 ha         1 DLM       0.162000
     29 H9           2.0700     2.4350     1.2210 ha         1 DLM       0.201000
     30 H10          5.5910     2.4990     1.4200 ho         1 DLM       0.265000
     31 H11          4.3560    -2.3320    -1.0080 ho         1 DLM       0.250000
     32 O21         -3.7540     1.7820     1.9240 oh         1 DLM      -0.225000
     33 O22         -4.5700    -0.8670    -1.9550 oh         1 DLM      -0.225000
@<TRIPOS>BOND
     1     1     2 1   
     2     1    16 1   
     3     2     3 1   
     4     2    13 1   
     5     3     4 1   
     6     3     9 1   
     7     4    12 1   
     8     4    21 1   
     9     5     6 1   
    10     5    18 1   
    11     5    22 1   
    12     6     7 1   
    13     6    20 1   
    14     7    15 1   
    15     7    16 1   
    16     8     9 1   
    17     8    10 1   
    18     8    33 1   
    19     9    25 1   
    20    10    11 1   
    21    10    12 1   
    22    11    26 1   
    23    12    32 1   
    24    13    14 1   
    25    13    15 1   
    26    14    27 1   
    27    15    28 1   
    28    16    17 1   
    29    17    18 1   
    30    17    29 1   
    31    18    19 1   
    32    19    30 1   
    33    20    31 1   
    34    23    32 1   
    35    24    33 1   
@<TRIPOS>SUBSTRUCTURE
     1 DLM         1 TEMP              0 ****  ****    0 ROOT
