@<TRIPOS>MOLECULE
DLM
   33    35     1     0     0
SMALL
No Charge or Current Charge


@<TRIPOS>ATOM
      1 O12          0.6330     0.7280     0.2560 os         1 DLM      -0.040000
      2 C11         -0.0970    -0.3650    -0.1160 c2         1 DLM       0.251000
      3 C14         -1.4690    -0.1560    -0.1120 ca         1 DLM      -0.052000
      4 C15         -2.1140     0.2940     1.0590 ca         1 DLM      -0.132000
      5 C1           4.7860     0.4380     0.3270 ca         1 DLM      -0.283000
      6 C2           4.0260    -0.6810    -0.0440 ca         1 DLM       0.223000
      7 C3           2.6110    -0.6050    -0.0740 ca         1 DLM      -0.218000
      8 C18         -3.6230    -0.1230    -1.2690 ca         1 DLM       0.123500
      9 C19         -2.2380    -0.3500    -1.2790 ca         1 DLM      -0.132000
     10 C17         -4.2680     0.3110    -0.0920 ca         1 DLM      -0.084000
     11 O24         -5.6280     0.5090    -0.1000 oh         1 DLM      -0.270000
     12 C16         -3.5000     0.5290     1.0750 ca         1 DLM       0.123500
     13 C10          0.4690    -1.5500    -0.4480 c2         1 DLM      -0.013000
     14 O27         -0.2970    -2.6110    -0.7850 oh         1 DLM      -0.206000
     15 C9           1.8130    -1.6930    -0.4340 c2         1 DLM      -0.035000
     16 C4           2.0000     0.6200     0.2770 ca         1 DLM       0.164000
     17 C5           2.7670     1.7320     0.6470 ca         1 DLM      -0.227000
     18 C6           4.1610     1.6420     0.6720 ca         1 DLM       0.246000
     19 O29          4.9040     2.7260     1.0320 oh         1 DLM      -0.194000
     20 O30          4.6890    -1.8280    -0.3700 oh         1 DLM      -0.203000
     21 H1          -1.5390     0.4640     1.9670 ha         1 DLM       0.171000
     22 H2           5.8710     0.3620     0.3460 ha         1 DLM       0.185000
     23 H3          -4.9780     1.2860     2.0390 ho         1 DLM       0.255000
     24 H4          -5.2770    -0.1220    -2.2120 ho         1 DLM       0.255000
     25 H5          -1.7620    -0.6790    -2.2010 ha         1 DLM       0.171000
     26 H6          -5.9580     0.5870     0.8130 ho         1 DLM       0.237000
     27 H7           0.2880    -3.3660    -0.9790 ho         1 DLM       0.256000
     28 H8           2.2450    -2.6590    -0.7010 ha         1 DLM       0.162000
     29 H9           2.2790     2.6660     0.9130 ha         1 DLM       0.201000
     30 H10          5.8450     2.4800     0.9930 ho         1 DLM       0.265000
     31 H11          4.0390    -2.5090    -0.6100 ho         1 DLM       0.250000
     32 O21         -4.0750     0.9780     2.2310 oh         1 DLM      -0.225000
     33 O22         -4.3450    -0.3290    -2.4090 oh         1 DLM      -0.225000
@<TRIPOS>BOND
     1     1     2 1   
     2     1    16 1   
     3     2     3 1   
     4     2    13 1   
     5     3     4 ar  
     6     3     9 ar  
     7     4    12 ar  
     8     4    21 1   
     9     5     6 ar  
    10     5    18 ar  
    11     5    22 1   
    12     6     7 ar  
    13     6    20 1   
    14     7    15 1   
    15     7    16 ar  
    16     8     9 ar  
    17     8    10 ar  
    18     8    33 1   
    19     9    25 1   
    20    10    11 1   
    21    10    12 ar  
    22    11    26 1   
    23    12    32 1   
    24    13    14 1   
    25    13    15 1   
    26    14    27 1   
    27    15    28 1   
    28    16    17 ar  
    29    17    18 ar  
    30    17    29 1   
    31    18    19 1   
    32    19    30 1   
    33    20    31 1   
    34    23    32 1   
    35    24    33 1   
@<TRIPOS>SUBSTRUCTURE
     1 DLM         1 TEMP              0 ****  ****    0 ROOT
