@<TRIPOS>MOLECULE
DLN
   37    39     1     0     0
SMALL
No Charge or Current Charge


@<TRIPOS>ATOM
      1 C20          4.3070     2.8260    -0.7280 c3         1 DLN      -0.105100
      2 C19          4.1960     1.7100     0.3350 c3         1 DLN       0.110300
      3 C21          4.2780     2.2740     1.7710 c3         1 DLN      -0.105100
      4 N7           2.9860     0.8810     0.1380 na         1 DLN      -0.013100
      5 N8           1.6790     1.3750     0.2320 nc         1 DLN      -0.496100
      6 C3           3.0110    -0.4730    -0.1630 ca         1 DLN       0.157500
      7 N2           4.0170    -1.3510    -0.3470 nb         1 DLN      -0.230000
      8 C1           3.6370    -2.6210    -0.6320 ca         1 DLN       0.196900
      9 N6           2.3660    -3.0800    -0.7470 nb         1 DLN      -0.309000
     10 C5           1.3940    -2.1770    -0.5560 ca         1 DLN       0.462900
     11 N10          0.1290    -2.6340    -0.6690 nv         1 DLN      -1.068900
     12 C4           1.7070    -0.8570    -0.2620 ca         1 DLN      -0.377900
     13 C11         -1.7290     0.5300    -0.0260 cg         1 DLN      -0.097000
     14 C12         -3.1610     0.5930    -0.0600 ca         1 DLN       0.065000
     15 C13         -3.9170     0.0130     0.9750 ca         1 DLN      -0.190000
     16 C17         -3.8140     1.2350    -1.1290 ca         1 DLN      -0.119000
     17 C16         -5.2180     1.2970    -1.1630 ca         1 DLN      -0.076000
     18 C15         -5.9690     0.7170    -0.1270 ca         1 DLN      -0.134000
     19 C14         -5.3200     0.0760     0.9400 ca         1 DLN       0.139100
     20 O18         -6.0560    -0.4840     1.9410 oh         1 DLN      -0.533100
     21 CAI          0.9030     0.3120    -0.0120 cd         1 DLN       0.440800
     22 CAM         -0.5100     0.4640    -0.0040 ch         1 DLN      -0.109200
     23 H201         5.2460     3.3800    -0.6100 hc         1 DLN       0.049367
     24 H202         4.2880     2.3980    -1.7370 hc         1 DLN       0.049367
     25 H203         3.4760     3.5360    -0.6390 hc         1 DLN       0.049367
     26 H19          5.0670     1.0550     0.2000 h1         1 DLN       0.083700
     27 H211         3.4450     2.9590     1.9710 hc         1 DLN       0.049367
     28 H212         4.2390     1.4600     2.5050 hc         1 DLN       0.049367
     29 H213         5.2170     2.8210     1.9180 hc         1 DLN       0.049367
     30 H1           4.4350    -3.3460    -0.7850 h5         1 DLN       0.046100
     31 H101        -0.0110    -3.5440    -1.1000 hn         1 DLN       0.504000
     32 H102        -0.6270    -1.9610    -0.7650 hn         1 DLN       0.504000
     33 H13         -3.4110    -0.4830     1.8010 ha         1 DLN       0.114000
     34 H17         -3.2340     1.6850    -1.9320 ha         1 DLN       0.127000
     35 H16         -5.7210     1.7940    -1.9900 ha         1 DLN       0.120000
     36 H15         -7.0550     0.7640    -0.1510 ha         1 DLN       0.131000
     37 H18         -5.4410    -0.8810     2.5940 ho         1 DLN       0.465000
@<TRIPOS>BOND
     1     1     2 1   
     2     1    23 1   
     3     1    24 1   
     4     1    25 1   
     5     2     3 1   
     6     2     4 1   
     7     2    26 1   
     8     3    27 1   
     9     3    28 1   
    10     3    29 1   
    11     4     5 1   
    12     4     6 1   
    13     5    21 2   
    14     6     7 ar  
    15     6    12 ar  
    16     7     8 ar  
    17     8     9 ar  
    18     8    30 1   
    19     9    10 ar  
    20    10    11 1   
    21    10    12 ar  
    22    11    31 1   
    23    11    32 1   
    24    12    21 1   
    25    13    14 1   
    26    13    22 3   
    27    14    15 ar  
    28    14    16 ar  
    29    15    19 ar  
    30    15    33 1   
    31    16    17 ar  
    32    16    34 1   
    33    17    18 ar  
    34    17    35 1   
    35    18    19 ar  
    36    18    36 1   
    37    19    20 1   
    38    20    37 1   
    39    21    22 1   
@<TRIPOS>SUBSTRUCTURE
     1 DLN         1 TEMP              0 ****  ****    0 ROOT
