@<TRIPOS>MOLECULE
DLN
   37    39     1     0     0
SMALL
abcg2


@<TRIPOS>ATOM
      1 C20          4.1420     2.7030    -1.0490 c3         1 DLN      -0.105100
      2 C19          4.1440     1.7210     0.1130 c3         1 DLN       0.110300
      3 C21          4.1890     2.4210     1.4630 c3         1 DLN      -0.105100
      4 N7           2.9900     0.8350     0.0340 na         1 DLN      -0.013100
      5 N8           1.7510     1.3270     0.0820 nc         1 DLN      -0.496100
      6 C3           2.9900    -0.5110    -0.0610 ca         1 DLN       0.157500
      7 N2           4.0470    -1.3240    -0.1310 nb         1 DLN      -0.230000
      8 C1           3.6930    -2.5890    -0.2250 ca         1 DLN       0.196900
      9 N6           2.4670    -3.1140    -0.2600 nb         1 DLN      -0.309000
     10 C5           1.4190    -2.2930    -0.1910 ca         1 DLN       0.462900
     11 N10          0.1920    -2.8110    -0.2300 nv         1 DLN      -1.068900
     12 C4           1.6560    -0.9070    -0.0780 ca         1 DLN      -0.377900
     13 C11         -1.6850     0.5590     0.0370 cg         1 DLN      -0.097000
     14 C12         -3.1000     0.6940     0.0090 ca         1 DLN       0.065000
     15 C13         -3.9100    -0.3510     0.4600 ca         1 DLN      -0.190000
     16 C17         -3.6790     1.8640    -0.4840 ca         1 DLN      -0.119000
     17 C16         -5.0600     1.9720    -0.5240 ca         1 DLN      -0.076000
     18 C15         -5.8700     0.9390    -0.0830 ca         1 DLN      -0.134000
     19 C14         -5.2920    -0.2290     0.4120 ca         1 DLN       0.139100
     20 O18         -6.1230    -1.2070     0.8250 oh         1 DLN      -0.533100
     21 CAI          0.9230     0.3030     0.0170 cd         1 DLN       0.440800
     22 CAM         -0.4810     0.4630     0.0400 ch         1 DLN      -0.109200
     23 H201         5.0440     3.3130    -1.0140 hc         1 DLN       0.049367
     24 H202         4.1250     2.1840    -2.0070 hc         1 DLN       0.049367
     25 H203         3.2820     3.3690    -0.9980 hc         1 DLN       0.049367
     26 H19          5.0080     1.0610     0.0240 h1         1 DLN       0.083700
     27 H211         3.3410     3.0960     1.5860 hc         1 DLN       0.049367
     28 H212         4.1830     1.7050     2.2840 hc         1 DLN       0.049367
     29 H213         5.1010     3.0110     1.5390 hc         1 DLN       0.049367
     30 H1           4.5030    -3.3080    -0.2850 h5         1 DLN       0.046100
     31 H101         0.0670    -3.8030    -0.3300 hn         1 DLN       0.504000
     32 H102        -0.6300    -2.2350    -0.2140 hn         1 DLN       0.504000
     33 H13         -3.4510    -1.2530     0.8480 ha         1 DLN       0.114000
     34 H17         -3.0540     2.6740    -0.8340 ha         1 DLN       0.127000
     35 H16         -5.5150     2.8750    -0.9060 ha         1 DLN       0.120000
     36 H15         -6.9470     1.0310    -0.1180 ha         1 DLN       0.131000
     37 H18         -5.6290    -1.9230     1.2330 ho         1 DLN       0.465000
@<TRIPOS>BOND
     1     1     2 1   
     2     1    23 1   
     3     1    24 1   
     4     1    25 1   
     5     2     3 1   
     6     2     4 1   
     7     2    26 1   
     8     3    27 1   
     9     3    28 1   
    10     3    29 1   
    11     4     5 1   
    12     4     6 1   
    13     5    21 2   
    14     6     7 ar  
    15     6    12 ar  
    16     7     8 ar  
    17     8     9 ar  
    18     8    30 1   
    19     9    10 ar  
    20    10    11 1   
    21    10    12 ar  
    22    11    31 1   
    23    11    32 1   
    24    12    21 1   
    25    13    14 1   
    26    13    22 3   
    27    14    15 ar  
    28    14    16 ar  
    29    15    19 ar  
    30    15    33 1   
    31    16    17 ar  
    32    16    34 1   
    33    17    18 ar  
    34    17    35 1   
    35    18    19 ar  
    36    18    36 1   
    37    19    20 1   
    38    20    37 1   
    39    21    22 1   
@<TRIPOS>SUBSTRUCTURE
     1 DLN         1 TEMP              0 ****  ****    0 ROOT
