@<TRIPOS>MOLECULE
DLP
  134   133     1     0     0
SMALL
abcg2


@<TRIPOS>ATOM
      1 C1           0.5410     4.0850     3.0870 c3         1 DLP       0.200600
      2 C2           1.1050     2.8720     3.8130 c3         1 DLP       0.174300
      3 C3           0.0710     1.9380     4.3990 c3         1 DLP       0.171600
      4 C4          -1.3980     4.5260    -1.5300 c3         1 DLP       0.212600
      5 C5          -2.3400     3.6090    -2.2770 c3         1 DLP       0.084600
      6 C6          -4.3820     4.5490    -1.2430 c3         1 DLP       0.072233
      7 C7          -4.4880     2.5780    -2.6540 c3         1 DLP       0.072233
      8 C8          -3.5250     2.4210    -0.4430 c3         1 DLP       0.072233
      9 C11         -1.8000     0.6850     3.7050 c          1 DLP       0.595100
     10 C12         -2.5870     0.2620     2.4960 c3         1 DLP      -0.138400
     11 C13         -3.7800    -0.6240     2.8110 c3         1 DLP      -0.072400
     12 C14         -4.5080    -1.0660     1.5480 c3         1 DLP      -0.070400
     13 C15         -5.7220    -1.9390     1.8410 c3         1 DLP      -0.078400
     14 C16         -6.4170    -2.4480     0.5850 c3         1 DLP      -0.072400
     15 C17         -7.6520    -3.2840     0.8910 c3         1 DLP      -0.074400
     16 C18         -8.3270    -3.8450    -0.3620 c3         1 DLP      -0.040200
     17 C19         -9.5160    -4.6840    -0.0180 c2         1 DLP      -0.220200
     18 C20        -10.7860    -4.4990    -0.3750 c2         1 DLP      -0.210200
     19 C21        -11.3450    -3.4270    -1.2690 c3         1 DLP      -0.010000
     20 C22        -12.0590    -4.0450    -2.4370 c2         1 DLP      -0.218200
     21 C23        -13.3680    -4.0310    -2.6830 c2         1 DLP      -0.213200
     22 C24        -14.4460    -3.3540    -1.8950 c3         1 DLP      -0.044200
     23 C25        -15.3060    -2.4390    -2.7680 c3         1 DLP      -0.073400
     24 C26        -16.3680    -1.6900    -1.9750 c3         1 DLP      -0.076400
     25 C27        -17.2720    -0.8270    -2.8480 c3         1 DLP      -0.074400
     26 C28        -18.2970    -0.0400    -2.0420 c3         1 DLP      -0.089100
     27 C32          3.8620     1.5720     1.7280 c3         1 DLP      -0.136400
     28 C33          5.2790     1.9930     1.3730 c3         1 DLP      -0.068400
     29 C34          5.9230     1.0300     0.3840 c3         1 DLP      -0.075400
     30 C35          7.3440     1.4290     0.0080 c3         1 DLP      -0.075400
     31 C36          7.9860     0.4780    -0.9950 c3         1 DLP      -0.075400
     32 C37          9.4160     0.8640    -1.3510 c3         1 DLP      -0.073400
     33 C38         10.0520    -0.0840    -2.3700 c3         1 DLP      -0.043200
     34 C39         11.4500     0.3230    -2.7150 c2         1 DLP      -0.216200
     35 C40         12.5750    -0.3530    -2.4900 c2         1 DLP      -0.213200
     36 C41         12.7160    -1.7200    -1.8800 c3         1 DLP      -0.011000
     37 C42         13.2070    -2.6990    -2.9090 c2         1 DLP      -0.213200
     38 C43         14.3770    -3.3350    -2.9330 c2         1 DLP      -0.217200
     39 C44         15.4750    -3.2740    -1.9170 c3         1 DLP      -0.043200
     40 C45         15.8280    -4.6590    -1.3720 c3         1 DLP      -0.073400
     41 C46         16.9270    -4.6230    -0.3190 c3         1 DLP      -0.076400
     42 C47         17.3240    -6.0060     0.1810 c3         1 DLP      -0.074400
     43 C48         18.3990    -5.9640     1.2580 c3         1 DLP      -0.089100
     44 N           -3.6720     3.3020    -1.6380 n4         1 DLP      -0.486000
     45 O2           1.9350     2.0910     2.9500 os         1 DLP      -0.430100
     46 O3          -0.7490     1.4170     3.3600 os         1 DLP      -0.407100
     47 O11         -2.0750     0.4160     4.8480 o          1 DLP      -0.500000
     48 O31          3.6600     3.4960     3.1650 o          1 DLP      -0.493000
     49 O1P         -2.2280     4.9060     1.5390 o          1 DLP      -0.817000
     50 O2P         -0.0340     6.0660     0.7940 o          1 DLP      -0.817000
     51 O3P          0.0380     3.7070     1.8270 os         1 DLP      -0.572400
     52 O4P         -0.8470     3.9180    -0.3850 os         1 DLP      -0.570400
     53 P           -0.8300     4.8140     0.9990 p5         1 DLP       1.376800
     54 HC11        -0.2330     4.5230     3.7300 h1         1 DLP       0.044700
     55 HC12         1.3270     4.8380     2.9770 h1         1 DLP       0.044700
     56 HC2          1.6820     3.2460     4.6650 h1         1 DLP       0.062700
     57 HC31        -0.5270     2.4970     5.1230 h1         1 DLP       0.053700
     58 HC32         0.5690     1.1260     4.9360 h1         1 DLP       0.053700
     59 HC41        -1.8870     5.4800    -1.3160 h1         1 DLP       0.056200
     60 HC42        -0.6020     4.7530    -2.2450 h1         1 DLP       0.056200
     61 HC51        -2.5670     4.0840    -3.2320 hx         1 DLP       0.079200
     62 HC52        -1.8680     2.6500    -2.4870 hx         1 DLP       0.079200
     63 HC61        -4.4260     5.2240    -2.0950 hx         1 DLP       0.095811
     64 HC62        -5.3920     4.2900    -0.9350 hx         1 DLP       0.095811
     65 HC63        -3.8620     5.0160    -0.4120 hx         1 DLP       0.095811
     66 HC71        -3.9710     1.6650    -2.9400 hx         1 DLP       0.095811
     67 HC72        -5.4550     2.3320    -2.2240 hx         1 DLP       0.095811
     68 HC73        -4.6230     3.2110    -3.5260 hx         1 DLP       0.095811
     69 HC81        -3.0510     2.9700     0.3630 hx         1 DLP       0.095811
     70 HC82        -4.5180     2.1040    -0.1310 hx         1 DLP       0.095811
     71 HC83        -2.9340     1.5510    -0.7160 hx         1 DLP       0.095811
     72 H121        -1.9060    -0.2370     1.7980 hc         1 DLP       0.066200
     73 H122        -2.9140     1.1730     1.9860 hc         1 DLP       0.066200
     74 H131        -4.4760    -0.0900     3.4640 hc         1 DLP       0.058700
     75 H132        -3.4500    -1.5070     3.3650 hc         1 DLP       0.058700
     76 H141        -3.8130    -1.6100     0.8990 hc         1 DLP       0.024700
     77 H142        -4.8290    -0.1860     0.9790 hc         1 DLP       0.024700
     78 H151        -6.4360    -1.3720     2.4470 hc         1 DLP       0.045700
     79 H152        -5.4140    -2.7930     2.4540 hc         1 DLP       0.045700
     80 H161        -5.7100    -3.0420    -0.0050 hc         1 DLP       0.030700
     81 H162        -6.7010    -1.5990    -0.0470 hc         1 DLP       0.030700
     82 H171        -8.3740    -2.6790     1.4490 hc         1 DLP       0.043200
     83 H172        -7.3760    -4.1120     1.5530 hc         1 DLP       0.043200
     84 H181        -7.5980    -4.4560    -0.9070 hc         1 DLP       0.041700
     85 H182        -8.5980    -3.0230    -1.0280 hc         1 DLP       0.041700
     86 H19         -9.3040    -5.5290     0.6330 ha         1 DLP       0.167000
     87 H20        -11.5230    -5.2030     0.0010 ha         1 DLP       0.171000
     88 H211       -10.5490    -2.7750    -1.6340 hc         1 DLP       0.049200
     89 H212       -12.0250    -2.7960    -0.6920 hc         1 DLP       0.049200
     90 H22        -11.4200    -4.5880    -3.1270 ha         1 DLP       0.168000
     91 H23        -13.7130    -4.5590    -3.5700 ha         1 DLP       0.166000
     92 H241       -14.0280    -2.7810    -1.0640 hc         1 DLP       0.045200
     93 H242       -15.0920    -4.1150    -1.4430 hc         1 DLP       0.045200
     94 H251       -15.7830    -3.0350    -3.5530 hc         1 DLP       0.038700
     95 H252       -14.6610    -1.7180    -3.2810 hc         1 DLP       0.038700
     96 H261       -15.8800    -1.0580    -1.2240 hc         1 DLP       0.037700
     97 H262       -16.9810    -2.4050    -1.4150 hc         1 DLP       0.037700
     98 H271       -17.7860    -1.4640    -3.5740 hc         1 DLP       0.036700
     99 H272       -16.6570    -0.1360    -3.4320 hc         1 DLP       0.036700
    100 H281       -18.9370     0.5630    -2.6870 hc         1 DLP       0.032033
    101 H282       -18.9420    -0.7060    -1.4670 hc         1 DLP       0.032033
    102 H283       -17.8090     0.6360    -1.3370 hc         1 DLP       0.032033
    103 H321         3.8580     0.5670     2.1640 hc         1 DLP       0.069200
    104 H322         3.2460     1.5000     0.8260 hc         1 DLP       0.069200
    105 H331         5.2700     3.0000     0.9450 hc         1 DLP       0.055200
    106 H332         5.8890     2.0470     2.2780 hc         1 DLP       0.055200
    107 H341         5.9300     0.0200     0.8080 hc         1 DLP       0.034700
    108 H342         5.3090     0.9750    -0.5210 hc         1 DLP       0.034700
    109 H351         7.3380     2.4430    -0.4050 hc         1 DLP       0.041200
    110 H352         7.9600     1.4730     0.9120 hc         1 DLP       0.041200
    111 H361         7.9760    -0.5400    -0.5900 hc         1 DLP       0.035700
    112 H362         7.3790     0.4480    -1.9060 hc         1 DLP       0.035700
    113 H371         9.4310     1.8850    -1.7460 hc         1 DLP       0.040700
    114 H372        10.0280     0.8780    -0.4450 hc         1 DLP       0.040700
    115 H381        10.0210    -1.1050    -1.9850 hc         1 DLP       0.043200
    116 H382         9.4420    -0.0820    -3.2800 hc         1 DLP       0.043200
    117 H39         11.5400     1.3010    -3.1820 ha         1 DLP       0.166000
    118 H40         13.5110     0.1030    -2.7990 ha         1 DLP       0.168000
    119 H411        13.4060    -1.6660    -1.0350 hc         1 DLP       0.050700
    120 H412        11.7600    -2.0660    -1.4810 hc         1 DLP       0.050700
    121 H42         12.5190    -2.8710    -3.7320 ha         1 DLP       0.167000
    122 H43         14.5680    -3.9980    -3.7730 ha         1 DLP       0.165000
    123 H441        16.3700    -2.8430    -2.3810 hc         1 DLP       0.044700
    124 H442        15.2110    -2.6110    -1.0910 hc         1 DLP       0.044700
    125 H451        14.9300    -5.1180    -0.9470 hc         1 DLP       0.038700
    126 H452        16.1370    -5.3040    -2.2020 hc         1 DLP       0.038700
    127 H461        17.8100    -4.1200    -0.7280 hc         1 DLP       0.037200
    128 H462        16.5960    -4.0110     0.5280 hc         1 DLP       0.037200
    129 H471        16.4390    -6.5190     0.5710 hc         1 DLP       0.036200
    130 H472        17.6740    -6.6080    -0.6630 hc         1 DLP       0.036200
    131 H481        19.3080    -5.4820     0.8920 hc         1 DLP       0.031367
    132 H482        18.0610    -5.4040     2.1320 hc         1 DLP       0.031367
    133 H483        18.6700    -6.9660     1.5940 hc         1 DLP       0.031367
    134 C31          3.1730     2.5030     2.6860 c          1 DLP       0.601100
@<TRIPOS>BOND
     1     1     2 1   
     2     1    51 1   
     3     1    54 1   
     4     1    55 1   
     5     2     3 1   
     6     2    45 1   
     7     2    56 1   
     8     3    46 1   
     9     3    57 1   
    10     3    58 1   
    11     4     5 1   
    12     4    52 1   
    13     4    59 1   
    14     4    60 1   
    15     5    44 1   
    16     5    61 1   
    17     5    62 1   
    18     6    44 1   
    19     6    63 1   
    20     6    64 1   
    21     6    65 1   
    22     7    44 1   
    23     7    66 1   
    24     7    67 1   
    25     7    68 1   
    26     8    44 1   
    27     8    69 1   
    28     8    70 1   
    29     8    71 1   
    30     9    10 1   
    31     9    46 1   
    32     9    47 2   
    33    10    11 1   
    34    10    72 1   
    35    10    73 1   
    36    11    12 1   
    37    11    74 1   
    38    11    75 1   
    39    12    13 1   
    40    12    76 1   
    41    12    77 1   
    42    13    14 1   
    43    13    78 1   
    44    13    79 1   
    45    14    15 1   
    46    14    80 1   
    47    14    81 1   
    48    15    16 1   
    49    15    82 1   
    50    15    83 1   
    51    16    17 1   
    52    16    84 1   
    53    16    85 1   
    54    17    18 2   
    55    17    86 1   
    56    18    19 1   
    57    18    87 1   
    58    19    20 1   
    59    19    88 1   
    60    19    89 1   
    61    20    21 2   
    62    20    90 1   
    63    21    22 1   
    64    21    91 1   
    65    22    23 1   
    66    22    92 1   
    67    22    93 1   
    68    23    24 1   
    69    23    94 1   
    70    23    95 1   
    71    24    25 1   
    72    24    96 1   
    73    24    97 1   
    74    25    26 1   
    75    25    98 1   
    76    25    99 1   
    77    26   100 1   
    78    26   101 1   
    79    26   102 1   
    80    27    28 1   
    81    27   103 1   
    82    27   104 1   
    83    27   134 1   
    84    28    29 1   
    85    28   105 1   
    86    28   106 1   
    87    29    30 1   
    88    29   107 1   
    89    29   108 1   
    90    30    31 1   
    91    30   109 1   
    92    30   110 1   
    93    31    32 1   
    94    31   111 1   
    95    31   112 1   
    96    32    33 1   
    97    32   113 1   
    98    32   114 1   
    99    33    34 1   
   100    33   115 1   
   101    33   116 1   
   102    34    35 2   
   103    34   117 1   
   104    35    36 1   
   105    35   118 1   
   106    36    37 1   
   107    36   119 1   
   108    36   120 1   
   109    37    38 2   
   110    37   121 1   
   111    38    39 1   
   112    38   122 1   
   113    39    40 1   
   114    39   123 1   
   115    39   124 1   
   116    40    41 1   
   117    40   125 1   
   118    40   126 1   
   119    41    42 1   
   120    41   127 1   
   121    41   128 1   
   122    42    43 1   
   123    42   129 1   
   124    42   130 1   
   125    43   131 1   
   126    43   132 1   
   127    43   133 1   
   128    45   134 1   
   129    48   134 2   
   130    49    53 1   
   131    50    53 1   
   132    51    53 1   
   133    52    53 1   
@<TRIPOS>SUBSTRUCTURE
     1 DLP         1 TEMP              0 ****  ****    0 ROOT
