@<TRIPOS>MOLECULE
DLP
  134   133     1     0     0
SMALL
No Charge or Current Charge


@<TRIPOS>ATOM
      1 C1          -0.1110     3.7280     3.2380 c3         1 DLP       0.200600
      2 C2           1.0740     2.7230     3.0760 c3         1 DLP       0.174300
      3 C3           0.7390     1.2400     3.3890 c3         1 DLP       0.171600
      4 C4          -1.4610     5.0330    -0.3860 c3         1 DLP       0.212600
      5 C5          -0.5080     3.8220    -0.5640 c3         1 DLP       0.084600
      6 C6          -1.4380     2.8750    -2.7110 c3         1 DLP       0.072233
      7 C7           0.0900     1.5050    -1.2790 c3         1 DLP       0.072233
      8 C8          -2.2330     1.9780    -0.5100 c3         1 DLP       0.072233
      9 C11         -0.3500    -0.6790     2.4360 c          1 DLP       0.595100
     10 C12         -1.2480    -1.1700     1.2970 c3         1 DLP      -0.138400
     11 C13         -2.6910    -1.4330     1.7910 c3         1 DLP      -0.072400
     12 C14         -3.6030    -2.0520     0.7070 c3         1 DLP      -0.070400
     13 C15         -4.9700    -2.5170     1.2620 c3         1 DLP      -0.078400
     14 C16         -5.8560    -3.2160     0.2050 c3         1 DLP      -0.072400
     15 C17         -7.1440    -3.8270     0.8040 c3         1 DLP      -0.074400
     16 C18         -8.0080    -4.5820    -0.2310 c3         1 DLP      -0.040200
     17 C19         -9.1690    -5.3150     0.4200 c2         1 DLP      -0.220200
     18 C20        -10.4740    -5.2520     0.0960 c2         1 DLP      -0.210200
     19 C21        -11.1180    -4.4470    -1.0150 c3         1 DLP      -0.010000
     20 C22        -12.3470    -5.1640    -1.5460 c2         1 DLP      -0.218200
     21 C23        -13.6270    -4.7560    -1.4770 c2         1 DLP      -0.213200
     22 C24        -14.1520    -3.4960    -0.8140 c3         1 DLP      -0.044200
     23 C25        -14.1550    -2.2900    -1.7750 c3         1 DLP      -0.073400
     24 C26        -14.6680    -0.9910    -1.1150 c3         1 DLP      -0.076400
     25 C27        -14.6660     0.2170    -2.0760 c3         1 DLP      -0.074400
     26 C28        -15.1780     1.5130    -1.4170 c3         1 DLP      -0.089100
     27 C32          3.0080     3.7080    -0.0030 c3         1 DLP      -0.136400
     28 C33          4.4500     3.1520     0.0650 c3         1 DLP      -0.068400
     29 C34          4.9940     2.6910    -1.3050 c3         1 DLP      -0.075400
     30 C35          6.4640     2.2200    -1.2380 c3         1 DLP      -0.075400
     31 C36          6.9690     1.6060    -2.5620 c3         1 DLP      -0.075400
     32 C37          8.4650     1.2210    -2.5150 c3         1 DLP      -0.073400
     33 C38          8.9480     0.4920    -3.7870 c3         1 DLP      -0.043200
     34 C39         10.4500     0.2740    -3.7960 c2         1 DLP      -0.216200
     35 C40         11.1360    -0.7100    -3.1860 c2         1 DLP      -0.213200
     36 C41         10.5840    -1.8230    -2.3150 c3         1 DLP      -0.011000
     37 C42         11.0230    -3.1760    -2.8380 c2         1 DLP      -0.213200
     38 C43         12.0920    -3.8950    -2.4470 c2         1 DLP      -0.217200
     39 C44         13.1460    -3.4980    -1.4280 c3         1 DLP      -0.043200
     40 C45         13.0350    -4.3070    -0.1190 c3         1 DLP      -0.073400
     41 C46         14.1260    -3.9370     0.9110 c3         1 DLP      -0.076400
     42 C47         14.0360    -4.7600     2.2160 c3         1 DLP      -0.074400
     43 C48         15.1280    -4.3900     3.2380 c3         1 DLP      -0.089100
     44 N           -1.0290     2.5540    -1.2650 n4         1 DLP      -0.486000
     45 O2           1.6620     2.7860     1.7510 os         1 DLP      -0.430100
     46 O3          -0.1020     0.6660     2.3630 os         1 DLP      -0.407100
     47 O11          0.1040    -1.4210     3.2990 o          1 DLP      -0.500000
     48 O31          2.6210     4.8450     2.1120 o          1 DLP      -0.493000
     49 O1P         -3.5680     3.9470     1.5130 o          1 DLP      -0.817000
     50 O2P         -2.6090     5.3140     3.3250 o          1 DLP      -0.817000
     51 O3P         -1.2050     3.3990     2.3690 os         1 DLP      -0.572400
     52 O4P         -1.5300     5.4180     1.0000 os         1 DLP      -0.570400
     53 P           -2.3210     4.5270     2.0900 p5         1 DLP       1.376800
     54 HC11        -0.4450     3.6960     4.2840 h1         1 DLP       0.044700
     55 HC12         0.2460     4.7470     3.0460 h1         1 DLP       0.044700
     56 HC2          1.8310     3.0150     3.8170 h1         1 DLP       0.062700
     57 HC31         0.2480     1.1800     4.3680 h1         1 DLP       0.053700
     58 HC32         1.6870     0.6890     3.4550 h1         1 DLP       0.053700
     59 HC41        -2.4590     4.7850    -0.7720 h1         1 DLP       0.056200
     60 HC42        -1.0800     5.8670    -0.9890 h1         1 DLP       0.056200
     61 HC51         0.3620     4.1640    -1.1280 hx         1 DLP       0.079200
     62 HC52        -0.1500     3.5110     0.4180 hx         1 DLP       0.079200
     63 HC61        -0.5770     3.2850    -3.2440 hx         1 DLP       0.095811
     64 HC62        -1.7740     1.9570    -3.2020 hx         1 DLP       0.095811
     65 HC63        -2.2510     3.6050    -2.7070 hx         1 DLP       0.095811
     66 HC71         0.3920     1.2890    -0.2500 hx         1 DLP       0.095811
     67 HC72        -0.2750     0.5940    -1.7580 hx         1 DLP       0.095811
     68 HC73         0.9420     1.9000    -1.8380 hx         1 DLP       0.095811
     69 HC81        -3.0570     2.6950    -0.5440 hx         1 DLP       0.095811
     70 HC82        -2.5430     1.0410    -0.9790 hx         1 DLP       0.095811
     71 HC83        -1.9470     1.7960     0.5290 hx         1 DLP       0.095811
     72 H121        -0.8310    -2.1070     0.9060 hc         1 DLP       0.066200
     73 H122        -1.2840    -0.4170     0.5020 hc         1 DLP       0.066200
     74 H131        -3.1340    -0.4940     2.1510 hc         1 DLP       0.058700
     75 H132        -2.6480    -2.1150     2.6520 hc         1 DLP       0.058700
     76 H141        -3.0920    -2.9160     0.2630 hc         1 DLP       0.024700
     77 H142        -3.7600    -1.3220    -0.0970 hc         1 DLP       0.024700
     78 H151        -5.5090    -1.6540     1.6760 hc         1 DLP       0.045700
     79 H152        -4.7940    -3.2120     2.0930 hc         1 DLP       0.045700
     80 H161        -5.2750    -4.0130    -0.2760 hc         1 DLP       0.030700
     81 H162        -6.1230    -2.4950    -0.5780 hc         1 DLP       0.030700
     82 H171        -7.7450    -3.0340     1.2660 hc         1 DLP       0.043200
     83 H172        -6.8640    -4.5220     1.6060 hc         1 DLP       0.043200
     84 H181        -7.3760    -5.3100    -0.7560 hc         1 DLP       0.041700
     85 H182        -8.3530    -3.8670    -0.9870 hc         1 DLP       0.041700
     86 H19         -8.8640    -5.9580     1.2490 ha         1 DLP       0.167000
     87 H20        -11.1910    -5.8410     0.6730 ha         1 DLP       0.171000
     88 H211       -10.4140    -4.2870    -1.8400 hc         1 DLP       0.049200
     89 H212       -11.3730    -3.4490    -0.6410 hc         1 DLP       0.049200
     90 H22        -12.1130    -6.1050    -2.0490 ha         1 DLP       0.168000
     91 H23        -14.4110    -5.3780    -1.9160 ha         1 DLP       0.166000
     92 H241       -13.5540    -3.2500     0.0720 hc         1 DLP       0.045200
     93 H242       -15.1720    -3.6710    -0.4490 hc         1 DLP       0.045200
     94 H251       -14.7800    -2.5260    -2.6450 hc         1 DLP       0.038700
     95 H252       -13.1360    -2.1260    -2.1480 hc         1 DLP       0.038700
     96 H261       -14.0410    -0.7590    -0.2440 hc         1 DLP       0.037700
     97 H262       -15.6870    -1.1540    -0.7420 hc         1 DLP       0.037700
     98 H271       -15.2920    -0.0110    -2.9480 hc         1 DLP       0.036700
     99 H272       -13.6470     0.3840    -2.4480 hc         1 DLP       0.036700
    100 H281       -15.1590     2.3410    -2.1360 hc         1 DLP       0.032033
    101 H282       -16.2090     1.3880    -1.0640 hc         1 DLP       0.032033
    102 H283       -14.5490     1.7880    -0.5610 hc         1 DLP       0.032033
    103 H321         2.4040     2.9830    -0.5590 hc         1 DLP       0.069200
    104 H322         3.0180     4.6760    -0.5160 hc         1 DLP       0.069200
    105 H331         5.1130     3.9190     0.4870 hc         1 DLP       0.055200
    106 H332         4.4750     2.2980     0.7560 hc         1 DLP       0.055200
    107 H341         4.3670     1.8720    -1.6800 hc         1 DLP       0.034700
    108 H342         4.9120     3.5140    -2.0250 hc         1 DLP       0.034700
    109 H351         7.1000     3.0720    -0.9670 hc         1 DLP       0.041200
    110 H352         6.5700     1.4750    -0.4400 hc         1 DLP       0.041200
    111 H361         6.3730     0.7140    -2.7930 hc         1 DLP       0.035700
    112 H362         6.8070     2.3210    -3.3790 hc         1 DLP       0.035700
    113 H371         9.0630     2.1300    -2.3740 hc         1 DLP       0.040700
    114 H372         8.6510     0.5800    -1.6450 hc         1 DLP       0.040700
    115 H381         8.4190    -0.4650    -3.8740 hc         1 DLP       0.043200
    116 H382         8.6600     1.0760    -4.6700 hc         1 DLP       0.043200
    117 H39         10.9930     1.0160    -4.3860 ha         1 DLP       0.166000
    118 H40         12.2230    -0.7450    -3.2880 ha         1 DLP       0.168000
    119 H411        10.9260    -1.6800    -1.2830 hc         1 DLP       0.050700
    120 H412         9.4900    -1.7880    -2.2610 hc         1 DLP       0.050700
    121 H42         10.3530    -3.5830    -3.5990 ha         1 DLP       0.167000
    122 H43         12.2770    -4.8690    -2.9060 ha         1 DLP       0.165000
    123 H441        14.1430    -3.6540    -1.8610 hc         1 DLP       0.044700
    124 H442        13.0880    -2.4290    -1.1930 hc         1 DLP       0.044700
    125 H451        12.0460    -4.1390     0.3240 hc         1 DLP       0.038700
    126 H452        13.1060    -5.3770    -0.3510 hc         1 DLP       0.038700
    127 H461        15.1140    -4.0910     0.4590 hc         1 DLP       0.037200
    128 H462        14.0470    -2.8700     1.1520 hc         1 DLP       0.037200
    129 H471        13.0510    -4.6070     2.6760 hc         1 DLP       0.036200
    130 H472        14.1170    -5.8280     1.9800 hc         1 DLP       0.036200
    131 H481        16.1270    -4.5630     2.8190 hc         1 DLP       0.031367
    132 H482        15.0510    -3.3340     3.5240 hc         1 DLP       0.031367
    133 H483        15.0270    -4.9990     4.1440 hc         1 DLP       0.031367
    134 C31          2.4170     3.8730     1.3990 c          1 DLP       0.601100
@<TRIPOS>BOND
     1     1     2 1   
     2     1    51 1   
     3     1    54 1   
     4     1    55 1   
     5     2     3 1   
     6     2    45 1   
     7     2    56 1   
     8     3    46 1   
     9     3    57 1   
    10     3    58 1   
    11     4     5 1   
    12     4    52 1   
    13     4    59 1   
    14     4    60 1   
    15     5    44 1   
    16     5    61 1   
    17     5    62 1   
    18     6    44 1   
    19     6    63 1   
    20     6    64 1   
    21     6    65 1   
    22     7    44 1   
    23     7    66 1   
    24     7    67 1   
    25     7    68 1   
    26     8    44 1   
    27     8    69 1   
    28     8    70 1   
    29     8    71 1   
    30     9    10 1   
    31     9    46 1   
    32     9    47 2   
    33    10    11 1   
    34    10    72 1   
    35    10    73 1   
    36    11    12 1   
    37    11    74 1   
    38    11    75 1   
    39    12    13 1   
    40    12    76 1   
    41    12    77 1   
    42    13    14 1   
    43    13    78 1   
    44    13    79 1   
    45    14    15 1   
    46    14    80 1   
    47    14    81 1   
    48    15    16 1   
    49    15    82 1   
    50    15    83 1   
    51    16    17 1   
    52    16    84 1   
    53    16    85 1   
    54    17    18 2   
    55    17    86 1   
    56    18    19 1   
    57    18    87 1   
    58    19    20 1   
    59    19    88 1   
    60    19    89 1   
    61    20    21 2   
    62    20    90 1   
    63    21    22 1   
    64    21    91 1   
    65    22    23 1   
    66    22    92 1   
    67    22    93 1   
    68    23    24 1   
    69    23    94 1   
    70    23    95 1   
    71    24    25 1   
    72    24    96 1   
    73    24    97 1   
    74    25    26 1   
    75    25    98 1   
    76    25    99 1   
    77    26   100 1   
    78    26   101 1   
    79    26   102 1   
    80    27    28 1   
    81    27   103 1   
    82    27   104 1   
    83    27   134 1   
    84    28    29 1   
    85    28   105 1   
    86    28   106 1   
    87    29    30 1   
    88    29   107 1   
    89    29   108 1   
    90    30    31 1   
    91    30   109 1   
    92    30   110 1   
    93    31    32 1   
    94    31   111 1   
    95    31   112 1   
    96    32    33 1   
    97    32   113 1   
    98    32   114 1   
    99    33    34 1   
   100    33   115 1   
   101    33   116 1   
   102    34    35 2   
   103    34   117 1   
   104    35    36 1   
   105    35   118 1   
   106    36    37 1   
   107    36   119 1   
   108    36   120 1   
   109    37    38 2   
   110    37   121 1   
   111    38    39 1   
   112    38   122 1   
   113    39    40 1   
   114    39   123 1   
   115    39   124 1   
   116    40    41 1   
   117    40   125 1   
   118    40   126 1   
   119    41    42 1   
   120    41   127 1   
   121    41   128 1   
   122    42    43 1   
   123    42   129 1   
   124    42   130 1   
   125    43   131 1   
   126    43   132 1   
   127    43   133 1   
   128    45   134 1   
   129    48   134 2   
   130    49    53 1   
   131    50    53 1   
   132    51    53 1   
   133    52    53 1   
@<TRIPOS>SUBSTRUCTURE
     1 DLP         1 TEMP              0 ****  ****    0 ROOT
