@<TRIPOS>MOLECULE
DLQ
  134   135     1     0     0
SMALL
No Charge or Current Charge


@<TRIPOS>ATOM
      1 N1         -10.5640    58.2420    25.6390 ns         1 DLQ      -0.502900
      2 C1          -9.8910    57.8750    26.9030 c3         1 DLQ       0.039700
      3 C2         -10.8750    57.2290    27.9280 c          1 DLQ       0.590100
      4 O1         -10.5010    56.8020    29.0120 o          1 DLQ      -0.645100
      5 C3          -8.6610    56.9920    26.6030 c3         1 DLQ      -0.106100
      6 N2         -12.2010    57.1430    27.5480 ns         1 DLQ      -0.481900
      7 C4         -13.2790    56.5720    28.3900 c3         1 DLQ       0.028700
      8 C5         -14.6500    57.2320    28.0870 c3         1 DLQ      -0.083400
      9 C6         -14.6790    58.7860    28.1570 c3         1 DLQ      -0.061700
     10 C7         -16.0590    59.3310    27.7250 c3         1 DLQ      -0.083600
     11 C8         -14.2840    59.3280    29.5510 c3         1 DLQ      -0.083600
     12 C9         -13.3490    55.0240    28.2400 c          1 DLQ       0.603100
     13 O2         -13.8340    54.2980    29.1000 o          1 DLQ      -0.655100
     14 N3         -12.7580    54.5200    27.1010 ns         1 DLQ      -0.447900
     15 C10        -11.0200    53.8650    24.8240 c          1 DLQ       0.629100
     16 O3         -11.1330    55.0850    24.8300 o          1 DLQ      -0.657100
     17 C11        -13.6000    52.3960    26.0690 c          1 DLQ       0.716000
     18 O4         -13.6480    52.5170    24.8540 o          1 DLQ      -0.710000
     19 O5         -14.3800    51.7040    26.7080 o          1 DLQ      -0.710000
     20 C12        -12.4380    53.1040    26.8380 c3         1 DLQ      -0.031300
     21 C13        -11.0660    52.9940    26.1030 c3         1 DLQ      -0.135700
     22 C14         -9.8760    53.3120    27.0410 c3         1 DLQ      -0.081100
     23 N4         -10.8700    53.1480    23.6590 ns         1 DLQ      -0.492900
     24 C15        -10.8750    53.7130    22.2900 c3         1 DLQ       0.021700
     25 C16        -11.9970    53.0570    21.4200 c          1 DLQ       0.593100
     26 O6         -11.9690    53.0520    20.1950 o          1 DLQ      -0.660100
     27 C17         -9.4680    53.5670    21.6710 c3         1 DLQ      -0.086100
     28 C18        -16.5680    51.1070    21.4630 c3         1 DLQ      -0.067100
     29 C19        -12.9790    46.9950    22.0810 c3         1 DLQ      -0.083100
     30 C20        -10.6530    46.4360    24.9610 c3         1 DLQ      -0.084100
     31 C22        -15.5440    53.3610    20.8730 c          1 DLQ       0.780500
     32 C23        -15.4060    52.0970    21.7540 c3         1 DLQ      -0.151700
     33 C24        -13.9860    51.4890    21.5640 c3         1 DLQ       0.122700
     34 C25        -13.8000    50.0790    22.1940 c3         1 DLQ      -0.091400
     35 C26        -12.3630    49.5010    22.0650 c3         1 DLQ      -0.064400
     36 C27        -12.1410    48.1190    22.7450 c3         1 DLQ      -0.061700
     37 C28        -10.6180    47.7830    22.7710 c3         1 DLQ      -0.074400
     38 C29        -10.1760    46.4570    23.4790 c3         1 DLQ      -0.073700
     39 C30         -8.6280    46.2410    23.3570 c3         1 DLQ       0.175300
     40 C31         -8.1310    45.9360    21.9050 c3         1 DLQ      -0.049100
     41 C32         -6.8220    46.6360    21.5480 ca         1 DLQ      -0.065300
     42 C33         -6.7380    48.0430    21.5780 ca         1 DLQ      -0.103500
     43 C34         -5.5370    48.6910    21.2430 ca         1 DLQ      -0.117500
     44 C35         -4.4120    47.9380    20.8680 ca         1 DLQ      -0.123000
     45 C36         -4.4910    46.5360    20.8250 ca         1 DLQ      -0.117500
     46 C37         -5.6920    45.8880    21.1600 ca         1 DLQ      -0.103500
     47 O7         -15.7490    53.2880    19.6690 o          1 DLQ      -0.616100
     48 O8          -8.2560    45.1320    24.2090 os         1 DLQ      -0.463000
     49 N5         -12.9840    52.3970    22.1220 ns         1 DLQ      -0.481900
     50 N6         -15.3420    54.5860    21.5010 ne         1 DLQ      -0.710100
     51 C38        -15.8020    54.9610    22.6750 cf         1 DLQ       0.448300
     52 C39        -17.3010    54.7870    23.0490 c          1 DLQ       0.596700
     53 O9         -18.0710    54.2770    22.2400 o          1 DLQ      -0.708000
     54 C40        -14.9100    55.7260    23.6590 c3         1 DLQ      -0.105700
     55 C41        -13.8060    56.5790    22.9680 c3         1 DLQ      -0.141400
     56 C42        -13.0810    57.6250    23.8350 c          1 DLQ       0.603100
     57 O10        -13.3690    57.7730    25.0140 o          1 DLQ      -0.617100
     58 O11        -17.6970    55.1560    24.1500 o          1 DLQ      -0.708000
     59 N7         -12.1290    58.4700    23.2100 n          1 DLQ      -0.431800
     60 C43        -11.6030    59.7020    23.8900 c3         1 DLQ       0.039700
     61 C44        -10.9330    59.5250    25.2890 c          1 DLQ       0.610100
     62 O12        -10.7640    60.4630    26.0590 o          1 DLQ      -0.613100
     63 C45        -12.6700    60.8220    23.8640 c3         1 DLQ      -0.095100
     64 C46        -11.6070    58.1650    21.8550 c3         1 DLQ       0.099300
     65 HN1        -10.7530    57.5130    24.9570 hn         1 DLQ       0.334500
     66 H1          -9.5270    58.7910    27.3860 h1         1 DLQ       0.071700
     67 H31         -7.9580    57.5240    25.9510 hc         1 DLQ       0.051367
     68 H32         -8.1330    56.7320    27.5280 hc         1 DLQ       0.051367
     69 H33A        -8.9550    56.0640    26.1010 hc         1 DLQ       0.051367
     70 HN2        -12.4460    57.5310    26.6360 hn         1 DLQ       0.357500
     71 H4         -13.0310    56.7640    29.4420 h1         1 DLQ       0.073700
     72 H51        -15.3950    56.8280    28.7850 hc         1 DLQ       0.076700
     73 H52        -14.9700    56.9180    27.0860 hc         1 DLQ       0.076700
     74 H6         -13.9500    59.1770    27.4360 hc         1 DLQ       0.062700
     75 H71        -16.0610    60.4270    27.7240 hc         1 DLQ       0.025200
     76 H72        -16.3080    58.9930    26.7110 hc         1 DLQ       0.025200
     77 H73        -16.8470    58.9860    28.4060 hc         1 DLQ       0.025200
     78 H81        -13.2540    59.0520    29.8060 hc         1 DLQ       0.025200
     79 H82        -14.3460    60.4230    29.5720 hc         1 DLQ       0.025200
     80 H83        -14.9500    58.9330    30.3280 hc         1 DLQ       0.025200
     81 HN3        -12.3770    55.2080    26.4570 hn         1 DLQ       0.328500
     82 H12        -12.3470    52.5840    27.8010 h1         1 DLQ       0.064700
     83 H13        -10.9470    51.9450    25.8040 hc         1 DLQ       0.064700
     84 H141        -9.8550    52.6140    27.8870 hc         1 DLQ       0.029367
     85 H142        -8.9260    53.2220    26.5020 hc         1 DLQ       0.029367
     86 H143        -9.9500    54.3290    27.4420 hc         1 DLQ       0.029367
     87 HN4        -10.7490    52.1480    23.7640 hn         1 DLQ       0.314500
     88 H15        -11.1190    54.7800    22.3470 h1         1 DLQ       0.106700
     89 H171        -9.4270    54.0400    20.6830 hc         1 DLQ       0.031367
     90 H172        -8.7170    54.0500    22.3080 hc         1 DLQ       0.031367
     91 H173        -9.2000    52.5100    21.5610 hc         1 DLQ       0.031367
     92 H181       -16.4640    50.6610    20.4670 hc         1 DLQ       0.030033
     93 H182       -16.5970    50.3010    22.2050 hc         1 DLQ       0.030033
     94 H183       -17.5340    51.6230    21.5050 hc         1 DLQ       0.030033
     95 H193       -12.6800    46.8510    21.0360 hc         1 DLQ       0.025700
     96 H201       -10.2140    47.2680    25.5240 hc         1 DLQ       0.036367
     97 H202       -11.7440    46.5100    25.0300 hc         1 DLQ       0.036367
     98 H203       -10.3770    45.5010    25.4610 hc         1 DLQ       0.036367
     99 H211        -6.3040    44.6800    23.5680 h1         1 DLQ       0.023700
    100 H212        -6.4160    45.9110    24.8530 h1         1 DLQ       0.023700
    101 H213        -6.6890    44.1960    25.2280 h1         1 DLQ       0.023700
    102 H23        -15.4710    52.3890    22.8060 hc         1 DLQ       0.110700
    103 H24        -13.8070    51.3820    20.4860 h1         1 DLQ       0.062700
    104 H251       -14.4950    49.3880    21.7060 hc         1 DLQ       0.057200
    105 H252       -14.0770    50.1180    23.2550 hc         1 DLQ       0.057200
    106 H261       -11.6560    50.2100    22.5120 hc         1 DLQ       0.034700
    107 H262       -12.0990    49.4300    21.0020 hc         1 DLQ       0.034700
    108 H27        -12.4850    48.2240    23.7810 hc         1 DLQ       0.060700
    109 H281       -10.0910    48.6120    23.2600 hc         1 DLQ       0.034200
    110 H282       -10.2700    47.7850    21.7330 hc         1 DLQ       0.034200
    111 H29        -10.6520    45.6120    22.9680 hc         1 DLQ       0.054700
    112 H30         -8.1460    47.1590    23.7200 h1         1 DLQ       0.037700
    113 H311        -8.8880    46.2260    21.1700 hc         1 DLQ       0.060200
    114 H312        -8.0380    44.8500    21.7790 hc         1 DLQ       0.060200
    115 H33         -7.6050    48.6360    21.8600 ha         1 DLQ       0.116500
    116 H34         -5.4790    49.7770    21.2720 ha         1 DLQ       0.105000
    117 H35         -3.4830    48.4400    20.6090 ha         1 DLQ       0.102000
    118 H36         -3.6220    45.9520    20.5300 ha         1 DLQ       0.105000
    119 H37         -5.7420    44.8020    21.1180 ha         1 DLQ       0.116500
    120 HN5        -12.9670    52.5010    23.1390 hn         1 DLQ       0.382500
    121 H401       -14.4300    55.0230    24.3470 hc         1 DLQ       0.080700
    122 H402       -15.5200    56.3920    24.2800 hc         1 DLQ       0.080700
    123 H411       -13.0590    55.9470    22.4800 hc         1 DLQ       0.067700
    124 H412       -14.2150    57.1210    22.1070 hc         1 DLQ       0.067700
    125 H43        -10.7750    60.0710    23.2720 h1         1 DLQ       0.044700
    126 H451       -13.5110    60.5720    24.5220 hc         1 DLQ       0.046700
    127 H452       -12.2440    61.7760    24.1970 hc         1 DLQ       0.046700
    128 H453       -13.0570    60.9610    22.8480 hc         1 DLQ       0.046700
    129 H461       -12.4190    58.2270    21.1190 h1         1 DLQ       0.036367
    130 H462       -10.8240    58.8760    21.5630 h1         1 DLQ       0.036367
    131 H463       -11.1780    57.1560    21.8400 h1         1 DLQ       0.036367
    132 H191       -12.8560    46.0440    22.6080 hc         1 DLQ       0.025700
    133 C21         -6.8480    44.9760    24.4730 c3         1 DLQ       0.153900
    134 H192       -14.0500    47.2280    22.1030 hc         1 DLQ       0.025700
@<TRIPOS>BOND
     1     1     2 1   
     2     1    61 1   
     3     1    65 1   
     4     2     3 1   
     5     2     5 1   
     6     2    66 1   
     7     3     4 2   
     8     3     6 1   
     9     5    67 1   
    10     5    68 1   
    11     5    69 1   
    12     6     7 1   
    13     6    70 1   
    14     7     8 1   
    15     7    12 1   
    16     7    71 1   
    17     8     9 1   
    18     8    72 1   
    19     8    73 1   
    20     9    10 1   
    21     9    11 1   
    22     9    74 1   
    23    10    75 1   
    24    10    76 1   
    25    10    77 1   
    26    11    78 1   
    27    11    79 1   
    28    11    80 1   
    29    12    13 2   
    30    12    14 1   
    31    14    20 1   
    32    14    81 1   
    33    15    16 2   
    34    15    21 1   
    35    15    23 1   
    36    17    18 1   
    37    17    19 1   
    38    17    20 1   
    39    20    21 1   
    40    20    82 1   
    41    21    22 1   
    42    21    83 1   
    43    22    84 1   
    44    22    85 1   
    45    22    86 1   
    46    23    24 1   
    47    23    87 1   
    48    24    25 1   
    49    24    27 1   
    50    24    88 1   
    51    25    26 2   
    52    25    49 1   
    53    27    89 1   
    54    27    90 1   
    55    27    91 1   
    56    28    32 1   
    57    28    92 1   
    58    28    93 1   
    59    28    94 1   
    60    29    36 1   
    61    29    95 1   
    62    29   132 1   
    63    29   134 1   
    64    30    38 1   
    65    30    96 1   
    66    30    97 1   
    67    30    98 1   
    68    31    32 1   
    69    31    47 2   
    70    31    50 1   
    71    32    33 1   
    72    32   102 1   
    73    33    34 1   
    74    33    49 1   
    75    33   103 1   
    76    34    35 1   
    77    34   104 1   
    78    34   105 1   
    79    35    36 1   
    80    35   106 1   
    81    35   107 1   
    82    36    37 1   
    83    36   108 1   
    84    37    38 1   
    85    37   109 1   
    86    37   110 1   
    87    38    39 1   
    88    38   111 1   
    89    39    40 1   
    90    39    48 1   
    91    39   112 1   
    92    40    41 1   
    93    40   113 1   
    94    40   114 1   
    95    41    42 ar  
    96    41    46 ar  
    97    42    43 ar  
    98    42   115 1   
    99    43    44 ar  
   100    43   116 1   
   101    44    45 ar  
   102    44   117 1   
   103    45    46 ar  
   104    45   118 1   
   105    46   119 1   
   106    48   133 1   
   107    49   120 1   
   108    50    51 2   
   109    51    52 1   
   110    51    54 1   
   111    52    53 1   
   112    52    58 1   
   113    54    55 1   
   114    54   121 1   
   115    54   122 1   
   116    55    56 1   
   117    55   123 1   
   118    55   124 1   
   119    56    57 2   
   120    56    59 1   
   121    59    60 1   
   122    59    64 1   
   123    60    61 1   
   124    60    63 1   
   125    60   125 1   
   126    61    62 2   
   127    63   126 1   
   128    63   127 1   
   129    63   128 1   
   130    64   129 1   
   131    64   130 1   
   132    64   131 1   
   133    99   133 1   
   134   100   133 1   
   135   101   133 1   
@<TRIPOS>SUBSTRUCTURE
     1 DLQ         1 TEMP              0 ****  ****    0 ROOT
