@<TRIPOS>MOLECULE
DLQ
  134   135     1     0     0
SMALL
abcg2


@<TRIPOS>ATOM
      1 N1         -11.5440    59.4410    25.8680 ns         1 DLQ      -0.502900
      2 C1         -10.7570    59.0180    27.0000 c3         1 DLQ       0.039700
      3 C2         -11.4730    58.0650    27.9600 c          1 DLQ       0.590100
      4 O1         -10.9020    57.7090    28.9820 o          1 DLQ      -0.645100
      5 C3          -9.4650    58.3720    26.5100 c3         1 DLQ      -0.106100
      6 N2         -12.6990    57.6410    27.6210 ns         1 DLQ      -0.481900
      7 C4         -13.4640    56.7570    28.4690 c3         1 DLQ       0.028700
      8 C5         -14.9620    56.9730    28.2380 c3         1 DLQ      -0.083400
      9 C6         -15.4500    58.3890    28.5530 c3         1 DLQ      -0.061700
     10 C7         -16.9020    58.5410    28.1110 c3         1 DLQ      -0.083600
     11 C8         -15.3000    58.7320    30.0320 c3         1 DLQ      -0.083600
     12 C9         -13.1240    55.2780    28.2760 c          1 DLQ       0.603100
     13 O2         -13.4840    54.4620    29.1200 o          1 DLQ      -0.655100
     14 N3         -12.4510    54.9770    27.1700 ns         1 DLQ      -0.447900
     15 C10        -10.5740    54.3240    24.8980 c          1 DLQ       0.629100
     16 O3         -10.8760    55.5100    24.7930 o          1 DLQ      -0.657100
     17 C11        -13.1250    53.0460    25.7560 c          1 DLQ       0.716000
     18 O4         -12.6830    52.1180    25.0360 o          1 DLQ      -0.710000
     19 O5         -14.2750    53.4920    25.7920 o          1 DLQ      -0.710000
     20 C12        -12.0930    53.6460    26.7580 c3         1 DLQ      -0.031300
     21 C13        -10.6460    53.6050    26.2300 c3         1 DLQ      -0.135700
     22 C14         -9.6460    54.1970    27.2200 c3         1 DLQ      -0.081100
     23 N4         -10.1700    53.5840    23.8530 ns         1 DLQ      -0.492900
     24 C15        -10.1910    54.0340    22.4830 c3         1 DLQ       0.021700
     25 C16        -11.0660    53.1400    21.5980 c          1 DLQ       0.593100
     26 O6         -10.9260    53.1760    20.3800 o          1 DLQ      -0.660100
     27 C17         -8.7840    54.1820    21.9180 c3         1 DLQ      -0.086100
     28 C18        -15.3690    51.3060    20.9190 c3         1 DLQ      -0.067100
     29 C19        -12.3450    47.0940    22.0310 c3         1 DLQ      -0.083100
     30 C20         -9.1510    47.0790    24.7410 c3         1 DLQ      -0.084100
     31 C22        -14.3470    53.5690    21.2030 c          1 DLQ       0.780500
     32 C23        -14.3510    52.1320    21.7000 c3         1 DLQ      -0.151700
     33 C24        -12.9280    51.5400    21.5560 c3         1 DLQ       0.122700
     34 C25        -12.8480    50.1150    22.1060 c3         1 DLQ      -0.091400
     35 C26        -11.4830    49.4680    21.9100 c3         1 DLQ      -0.064400
     36 C27        -11.3370    48.1010    22.5790 c3         1 DLQ      -0.061700
     37 C28         -9.9070    47.5820    22.4040 c3         1 DLQ      -0.074400
     38 C29         -9.4950    46.4730    23.3830 c3         1 DLQ      -0.073700
     39 C30         -8.3290    45.6590    22.8000 c3         1 DLQ       0.175300
     40 C31         -8.7930    44.7130    21.6870 c3         1 DLQ      -0.049100
     41 C32         -7.6370    44.0330    21.0120 ca         1 DLQ      -0.065300
     42 C33         -6.9710    44.6580    19.9590 ca         1 DLQ      -0.103500
     43 C34         -5.8730    44.0620    19.3530 ca         1 DLQ      -0.117500
     44 C35         -5.4210    42.8250    19.7940 ca         1 DLQ      -0.123000
     45 C36         -6.0760    42.1920    20.8420 ca         1 DLQ      -0.117500
     46 C37         -7.1730    42.7940    21.4460 ca         1 DLQ      -0.103500
     47 O7         -14.3900    53.8420    20.0170 o          1 DLQ      -0.616100
     48 O8          -7.7020    44.8680    23.7900 os         1 DLQ      -0.463000
     49 N5         -11.9590    52.3760    22.2310 ns         1 DLQ      -0.481900
     50 N6         -14.0370    54.5190    22.1450 ne         1 DLQ      -0.710100
     51 C38        -14.8420    55.1490    22.8840 cf         1 DLQ       0.448300
     52 C39        -16.3640    54.9400    22.7760 c          1 DLQ       0.596700
     53 O9         -16.7240    54.0140    22.0280 o          1 DLQ      -0.708000
     54 C40        -14.3320    56.1780    23.8440 c3         1 DLQ      -0.105700
     55 C41        -14.3290    57.5500    23.1710 c3         1 DLQ      -0.141400
     56 C42        -14.0020    58.6570    24.1450 c          1 DLQ       0.603100
     57 O10        -14.3630    58.5940    25.3170 o          1 DLQ      -0.617100
     58 O11        -17.0740    55.7160    23.4330 o          1 DLQ      -0.708000
     59 N7         -13.3000    59.7210    23.6970 n          1 DLQ      -0.431800
     60 C43        -13.0950    60.8430    24.6090 c3         1 DLQ       0.039700
     61 C44        -12.4650    60.4230    25.9390 c          1 DLQ       0.610100
     62 O12        -12.7170    61.0120    26.9760 o          1 DLQ      -0.613100
     63 C45        -14.3500    61.6820    24.8010 c3         1 DLQ      -0.095100
     64 C46        -13.0120    59.9230    22.2840 c3         1 DLQ       0.099300
     65 HN1        -11.3510    59.0170    24.9740 hn         1 DLQ       0.334500
     66 H1         -10.5010    59.8980    27.5960 h1         1 DLQ       0.071700
     67 H31         -8.9050    59.0760    25.8950 hc         1 DLQ       0.051367
     68 H32         -8.8390    58.0870    27.3520 hc         1 DLQ       0.051367
     69 H33A        -9.6710    57.4780    25.9200 hc         1 DLQ       0.051367
     70 HN2        -13.1550    58.0070    26.7920 hn         1 DLQ       0.357500
     71 H4         -13.2260    56.9810    29.5110 h1         1 DLQ       0.073700
     72 H51        -15.5080    56.2560    28.8570 hc         1 DLQ       0.076700
     73 H52        -15.1940    56.7300    27.1970 hc         1 DLQ       0.076700
     74 H6         -14.8550    59.1000    27.9740 hc         1 DLQ       0.062700
     75 H71        -17.2670    59.5530    28.3000 hc         1 DLQ       0.025200
     76 H72        -17.0100    58.3430    27.0440 hc         1 DLQ       0.025200
     77 H73        -17.5550    57.8490    28.6490 hc         1 DLQ       0.025200
     78 H81        -14.2630    58.6840    30.3690 hc         1 DLQ       0.025200
     79 H82        -15.6550    59.7450    30.2320 hc         1 DLQ       0.025200
     80 H83        -15.8830    58.0500    30.6560 hc         1 DLQ       0.025200
     81 HN3        -12.2320    55.7180    26.5200 hn         1 DLQ       0.328500
     82 H12        -12.1180    53.0110    27.6500 h1         1 DLQ       0.064700
     83 H13        -10.3980    52.5520    26.0850 hc         1 DLQ       0.064700
     84 H141        -9.6850    53.6500    28.1620 hc         1 DLQ       0.029367
     85 H142        -8.6270    54.1190    26.8380 hc         1 DLQ       0.029367
     86 H143        -9.8490    55.2460    27.4340 hc         1 DLQ       0.029367
     87 HN4         -9.9190    52.6240    24.0280 hn         1 DLQ       0.314500
     88 H15        -10.6780    55.0130    22.4850 h1         1 DLQ       0.106700
     89 H171        -8.8070    54.5690    20.9020 hc         1 DLQ       0.031367
     90 H172        -8.2140    54.8780    22.5320 hc         1 DLQ       0.031367
     91 H173        -8.2560    53.2280    21.9080 hc         1 DLQ       0.031367
     92 H181       -15.0130    51.0830    19.9120 hc         1 DLQ       0.030033
     93 H182       -15.5700    50.3580    21.4170 hc         1 DLQ       0.030033
     94 H183       -16.3150    51.8350    20.8360 hc         1 DLQ       0.030033
     95 H193       -12.2760    47.0390    20.9410 hc         1 DLQ       0.025700
     96 H201        -8.2730    47.7260    24.6740 hc         1 DLQ       0.036367
     97 H202        -9.9770    47.6880    25.1110 hc         1 DLQ       0.036367
     98 H203        -8.9530    46.3160    25.4920 hc         1 DLQ       0.036367
     99 H211        -5.7250    45.1660    23.2100 h1         1 DLQ       0.023700
    100 H212        -6.2980    46.2390    24.5020 h1         1 DLQ       0.023700
    101 H213        -6.0040    44.5260    24.8370 h1         1 DLQ       0.023700
    102 H23        -14.6010    52.1350    22.7650 hc         1 DLQ       0.110700
    103 H24        -12.6720    51.5240    20.4940 h1         1 DLQ       0.062700
    104 H251       -13.6120    49.5100    21.6150 hc         1 DLQ       0.057200
    105 H252       -13.0990    50.1380    23.1720 hc         1 DLQ       0.057200
    106 H261       -10.7100    50.1300    22.3100 hc         1 DLQ       0.034700
    107 H262       -11.2750    49.3660    20.8370 hc         1 DLQ       0.034700
    108 H27        -11.5340    48.2380    23.6490 hc         1 DLQ       0.060700
    109 H281        -9.1990    48.4110    22.5220 hc         1 DLQ       0.034200
    110 H282        -9.7960    47.2510    21.3660 hc         1 DLQ       0.034200
    111 H29        -10.3390    45.7840    23.5250 hc         1 DLQ       0.054700
    112 H30         -7.6030    46.3670    22.3710 h1         1 DLQ       0.037700
    113 H311        -9.3740    45.2690    20.9490 hc         1 DLQ       0.060200
    114 H312        -9.4700    43.9740    22.1250 hc         1 DLQ       0.060200
    115 H33         -7.3160    45.6240    19.6080 ha         1 DLQ       0.116500
    116 H34         -5.3720    44.5640    18.5350 ha         1 DLQ       0.105000
    117 H35         -4.5670    42.3550    19.3220 ha         1 DLQ       0.102000
    118 H36         -5.7340    41.2260    21.1910 ha         1 DLQ       0.105000
    119 H37         -7.6790    42.2890    22.2600 ha         1 DLQ       0.116500
    120 HN5        -12.0840    52.4460    23.2430 hn         1 DLQ       0.382500
    121 H401       -13.3200    55.9150    24.1470 hc         1 DLQ       0.080700
    122 H402       -14.9630    56.1910    24.7290 hc         1 DLQ       0.080700
    123 H411       -13.6420    57.5360    22.3250 hc         1 DLQ       0.067700
    124 H412       -15.3190    57.7730    22.7600 hc         1 DLQ       0.067700
    125 H43        -12.3380    61.4750    24.1340 h1         1 DLQ       0.044700
    126 H451       -15.1280    61.1300    25.3240 hc         1 DLQ       0.046700
    127 H452       -14.1260    62.5830    25.3680 hc         1 DLQ       0.046700
    128 H453       -14.7340    61.9910    23.8290 hc         1 DLQ       0.046700
    129 H461       -13.9080    59.8470    21.6680 h1         1 DLQ       0.036367
    130 H462       -12.6070    60.9220    22.1470 h1         1 DLQ       0.036367
    131 H463       -12.2710    59.2150    21.9140 h1         1 DLQ       0.036367
    132 H191       -12.1660    46.0890    22.4190 hc         1 DLQ       0.025700
    133 C21         -6.3770    45.2270    24.0890 c3         1 DLQ       0.153900
    134 H192       -13.3710    47.3550    22.2880 hc         1 DLQ       0.025700
@<TRIPOS>BOND
     1     1     2 1   
     2     1    61 1   
     3     1    65 1   
     4     2     3 1   
     5     2     5 1   
     6     2    66 1   
     7     3     4 2   
     8     3     6 1   
     9     5    67 1   
    10     5    68 1   
    11     5    69 1   
    12     6     7 1   
    13     6    70 1   
    14     7     8 1   
    15     7    12 1   
    16     7    71 1   
    17     8     9 1   
    18     8    72 1   
    19     8    73 1   
    20     9    10 1   
    21     9    11 1   
    22     9    74 1   
    23    10    75 1   
    24    10    76 1   
    25    10    77 1   
    26    11    78 1   
    27    11    79 1   
    28    11    80 1   
    29    12    13 2   
    30    12    14 1   
    31    14    20 1   
    32    14    81 1   
    33    15    16 2   
    34    15    21 1   
    35    15    23 1   
    36    17    18 1   
    37    17    19 1   
    38    17    20 1   
    39    20    21 1   
    40    20    82 1   
    41    21    22 1   
    42    21    83 1   
    43    22    84 1   
    44    22    85 1   
    45    22    86 1   
    46    23    24 1   
    47    23    87 1   
    48    24    25 1   
    49    24    27 1   
    50    24    88 1   
    51    25    26 2   
    52    25    49 1   
    53    27    89 1   
    54    27    90 1   
    55    27    91 1   
    56    28    32 1   
    57    28    92 1   
    58    28    93 1   
    59    28    94 1   
    60    29    36 1   
    61    29    95 1   
    62    29   132 1   
    63    29   134 1   
    64    30    38 1   
    65    30    96 1   
    66    30    97 1   
    67    30    98 1   
    68    31    32 1   
    69    31    47 2   
    70    31    50 1   
    71    32    33 1   
    72    32   102 1   
    73    33    34 1   
    74    33    49 1   
    75    33   103 1   
    76    34    35 1   
    77    34   104 1   
    78    34   105 1   
    79    35    36 1   
    80    35   106 1   
    81    35   107 1   
    82    36    37 1   
    83    36   108 1   
    84    37    38 1   
    85    37   109 1   
    86    37   110 1   
    87    38    39 1   
    88    38   111 1   
    89    39    40 1   
    90    39    48 1   
    91    39   112 1   
    92    40    41 1   
    93    40   113 1   
    94    40   114 1   
    95    41    42 ar  
    96    41    46 ar  
    97    42    43 ar  
    98    42   115 1   
    99    43    44 ar  
   100    43   116 1   
   101    44    45 ar  
   102    44   117 1   
   103    45    46 ar  
   104    45   118 1   
   105    46   119 1   
   106    48   133 1   
   107    49   120 1   
   108    50    51 2   
   109    51    52 1   
   110    51    54 1   
   111    52    53 1   
   112    52    58 1   
   113    54    55 1   
   114    54   121 1   
   115    54   122 1   
   116    55    56 1   
   117    55   123 1   
   118    55   124 1   
   119    56    57 2   
   120    56    59 1   
   121    59    60 1   
   122    59    64 1   
   123    60    61 1   
   124    60    63 1   
   125    60   125 1   
   126    61    62 2   
   127    63   126 1   
   128    63   127 1   
   129    63   128 1   
   130    64   129 1   
   131    64   130 1   
   132    64   131 1   
   133    99   133 1   
   134   100   133 1   
   135   101   133 1   
@<TRIPOS>SUBSTRUCTURE
     1 DLQ         1 TEMP              0 ****  ****    0 ROOT
