@<TRIPOS>MOLECULE
DLR
   37    40     1     0     0
SMALL
No Charge or Current Charge


@<TRIPOS>ATOM
      1 CAJ         -0.9860    -0.3430    -1.0420 ca         1 DLR      -0.010000
      2 CAS         -2.1350    -1.1050    -0.7950 ca         1 DLR      -0.242900
      3 CAI         -2.6950    -2.2460    -1.4730 cc         1 DLR       0.358800
      4 NAM         -3.8220    -2.6720    -0.8760 nd         1 DLR      -0.514100
      5 NAN         -3.9750    -1.7830     0.2000 na         1 DLR      -0.058400
      6 CAT         -2.9630    -0.8480     0.2470 ca         1 DLR      -0.030200
      7 CAH         -2.7250     0.1980     1.1440 ca         1 DLR      -0.134000
      8 CAG         -1.5750     0.9890     0.9320 ca         1 DLR      -0.042000
      9 CAR         -0.6950     0.7220    -0.1550 ca         1 DLR      -0.143300
     10 CAU          0.5620     1.5600    -0.3720 c5         1 DLR       0.314000
     11 SAO          0.2170     3.3740    -0.4710 ss         1 DLR      -0.403000
     12 CAK          1.9000     3.6970     0.2250 c5         1 DLR      -0.041400
     13 CAP          2.2020     2.5420     1.1900 c          1 DLR       0.569000
     14 OAA          2.9540     2.5770     2.1550 o          1 DLR      -0.536000
     15 NAV          1.4650     1.4080     0.7960 n          1 DLR      -0.409800
     16 CAL          1.6640     0.1210     1.5110 c3         1 DLR       0.148300
     17 CAQ          1.8660    -1.0720     0.5830 ca         1 DLR      -0.119300
     18 CAE          2.9020    -1.0630    -0.3720 ca         1 DLR      -0.097000
     19 CAC          3.0760    -2.1540    -1.2400 ca         1 DLR      -0.113000
     20 CAB          2.2170    -3.2630    -1.1580 ca         1 DLR      -0.103000
     21 CAD          1.1850    -3.2810    -0.2040 ca         1 DLR      -0.113000
     22 CAF          1.0120    -2.1910     0.6660 ca         1 DLR      -0.097000
     23 HAJ         -0.3300    -0.5770    -1.8780 ha         1 DLR       0.124000
     24 HAI         -2.3580    -2.7850    -2.3480 h4         1 DLR       0.051800
     25 HAN         -4.7580    -1.8560     0.8480 hn         1 DLR       0.378000
     26 HAH         -3.3960     0.3940     1.9770 ha         1 DLR       0.125000
     27 HAG         -1.3570     1.8060     1.6160 ha         1 DLR       0.128000
     28 HAU          1.1250     1.2280    -1.2540 h2         1 DLR       0.081700
     29 HAK1         2.6550     3.6900    -0.5710 h1         1 DLR       0.101200
     30 HAK2         1.9370     4.6510     0.7650 h1         1 DLR       0.101200
     31 HAL1         2.5380     0.1820     2.1720 h1         1 DLR       0.073700
     32 HAL2         0.7930    -0.0550     2.1550 h1         1 DLR       0.073700
     33 HAE          3.5690    -0.2060    -0.4440 ha         1 DLR       0.119000
     34 HAF          0.2040    -2.2110     1.3940 ha         1 DLR       0.119000
     35 HAC          3.8750    -2.1400    -1.9780 ha         1 DLR       0.114500
     36 HAB          2.3510    -4.1070    -1.8310 ha         1 DLR       0.114000
     37 HAD          0.5190    -4.1380    -0.1400 ha         1 DLR       0.114500
@<TRIPOS>BOND
     1     1     2 ar  
     2     1     9 ar  
     3     1    23 1   
     4     2     3 1   
     5     2     6 ar  
     6     3     4 2   
     7     3    24 1   
     8     4     5 1   
     9     5     6 1   
    10     5    25 1   
    11     6     7 ar  
    12     7     8 ar  
    13     7    26 1   
    14     8     9 ar  
    15     8    27 1   
    16     9    10 1   
    17    10    11 1   
    18    10    15 1   
    19    10    28 1   
    20    11    12 1   
    21    12    13 1   
    22    12    29 1   
    23    12    30 1   
    24    13    14 2   
    25    13    15 1   
    26    15    16 1   
    27    16    17 1   
    28    16    31 1   
    29    16    32 1   
    30    17    18 ar  
    31    17    22 ar  
    32    18    19 ar  
    33    18    33 1   
    34    19    20 ar  
    35    19    35 1   
    36    20    21 ar  
    37    20    36 1   
    38    21    22 ar  
    39    21    37 1   
    40    22    34 1   
@<TRIPOS>SUBSTRUCTURE
     1 DLR         1 TEMP              0 ****  ****    0 ROOT
