@<TRIPOS>MOLECULE
DLR
   37    40     1     0     0
SMALL
bcc


@<TRIPOS>ATOM
      1 CAJ         -1.4370    -0.4540    -0.8800 ca         1 DLR      -0.028000
      2 CAS         -2.7030    -0.9750    -0.5760 ca         1 DLR      -0.242900
      3 CAI         -3.5430    -1.9920    -1.1010 cc         1 DLR       0.358800
      4 NAM         -4.6560    -2.0740    -0.4160 nd         1 DLR      -0.514100
      5 NAN         -4.5860    -1.1500     0.5450 na         1 DLR      -0.008100
      6 CAT         -3.4310    -0.4510     0.5050 ca         1 DLR      -0.030200
      7 CAH         -2.9350     0.5900     1.3020 ca         1 DLR      -0.152000
      8 CAG         -1.6980     1.0850     0.9760 ca         1 DLR      -0.060000
      9 CAR         -0.9440     0.5710    -0.1070 ca         1 DLR      -0.143300
     10 CAU          0.4140     1.1370    -0.4070 c5         1 DLR       0.266100
     11 SAO          0.2860     2.9100    -0.8490 ss         1 DLR      -0.307200
     12 CAK          1.7840     3.3300     0.0640 c5         1 DLR      -0.089300
     13 CAP          2.0800     2.1740     0.9940 c          1 DLR       0.711500
     14 OAA          2.9400     2.2250     1.8530 o          1 DLR      -0.611500
     15 NAV          1.3060     1.0980     0.7330 n          1 DLR      -0.476800
     16 CAL          1.5190    -0.1820     1.3860 c3         1 DLR       0.148300
     17 CAQ          2.1510    -1.1900     0.4590 ca         1 DLR      -0.119300
     18 CAE          3.4420    -0.9870    -0.0240 ca         1 DLR      -0.115000
     19 CAC          4.0210    -1.9020    -0.8910 ca         1 DLR      -0.131000
     20 CAB          3.3140    -3.0330    -1.2850 ca         1 DLR      -0.121000
     21 CAD          2.0300    -3.2430    -0.8050 ca         1 DLR      -0.131000
     22 CAF          1.4520    -2.3240     0.0620 ca         1 DLR      -0.115000
     23 HAJ         -0.8540    -0.8530    -1.7020 ha         1 DLR       0.142000
     24 HAI         -3.3640    -2.6470    -1.9410 h4         1 DLR       0.051800
     25 HAN         -5.3530    -1.0410     1.1880 hn         1 DLR       0.327700
     26 HAH         -3.5000     0.9900     2.1330 ha         1 DLR       0.143000
     27 HAG         -1.2820     1.8950     1.5620 ha         1 DLR       0.146000
     28 HAU          0.8550     0.5850    -1.2420 h2         1 DLR       0.081700
     29 HAK1         2.6390     3.4730    -0.5990 h1         1 DLR       0.101200
     30 HAK2         1.6400     4.2450     0.6370 h1         1 DLR       0.101200
     31 HAL1         2.1500    -0.0070     2.2560 h1         1 DLR       0.073700
     32 HAL2         0.5620    -0.5570     1.7510 h1         1 DLR       0.073700
     33 HAE          4.0030    -0.1130     0.2870 ha         1 DLR       0.137000
     34 HAF          0.4480    -2.4920     0.4320 ha         1 DLR       0.137000
     35 HAC          5.0250    -1.7340    -1.2570 ha         1 DLR       0.132500
     36 HAB          3.7670    -3.7460    -1.9620 ha         1 DLR       0.132000
     37 HAD          1.4740    -4.1210    -1.1090 ha         1 DLR       0.132500
@<TRIPOS>BOND
     1     1     2 ar  
     2     1     9 ar  
     3     1    23 1   
     4     2     3 1   
     5     2     6 ar  
     6     3     4 2   
     7     3    24 1   
     8     4     5 1   
     9     5     6 1   
    10     5    25 1   
    11     6     7 ar  
    12     7     8 ar  
    13     7    26 1   
    14     8     9 ar  
    15     8    27 1   
    16     9    10 1   
    17    10    11 1   
    18    10    15 1   
    19    10    28 1   
    20    11    12 1   
    21    12    13 1   
    22    12    29 1   
    23    12    30 1   
    24    13    14 2   
    25    13    15 1   
    26    15    16 1   
    27    16    17 1   
    28    16    31 1   
    29    16    32 1   
    30    17    18 ar  
    31    17    22 ar  
    32    18    19 ar  
    33    18    33 1   
    34    19    20 ar  
    35    19    35 1   
    36    20    21 ar  
    37    20    36 1   
    38    21    22 ar  
    39    21    37 1   
    40    22    34 1   
@<TRIPOS>SUBSTRUCTURE
     1 DLR         1 TEMP              0 ****  ****    0 ROOT
