@<TRIPOS>MOLECULE
DLS
   33    32     1     0     0
SMALL
No Charge or Current Charge


@<TRIPOS>ATOM
      1 C2           0.8990   -16.0320    27.1610 c3         1 DLS      -0.178100
      2 O1          -1.3020   -15.0640    26.9540 o          1 DLS      -0.629100
      3 C1          -0.1030   -14.8820    27.1180 c          1 DLS       0.603100
      4 N            0.4530   -13.6310    27.2740 ns         1 DLS      -0.462900
      5 CA          -0.2940   -12.3480    27.2930 c3         1 DLS      -0.042300
      6 C            0.4700   -11.2650    26.4680 c          1 DLS       0.718000
      7 O            1.6490   -11.0570    26.7260 o          1 DLS      -0.721500
      8 CB          -0.5810   -11.8600    28.7380 c3         1 DLS      -0.077400
      9 CG          -1.4900   -12.8040    29.5650 c3         1 DLS      -0.076400
     10 CD          -1.7810   -12.3110    31.0020 c3         1 DLS      -0.091400
     11 CE          -2.6160   -11.0160    31.0720 c3         1 DLS       0.101000
     12 NZ          -2.9200   -10.6510    32.4570 ns         1 DLS      -0.510900
     13 CH3         -4.1990    -8.6180    31.7890 c3         1 DLS      -0.178100
     14 OH          -3.8370    -9.3580    34.0540 o          1 DLS      -0.634100
     15 CH          -3.6480    -9.5560    32.8640 c          1 DLS       0.604100
     16 OXT         -0.1180   -10.7250    25.5410 o          1 DLS      -0.721500
     17 H21          1.4650   -15.9780    28.0990 hc         1 DLS       0.041367
     18 H22          0.4280   -17.0120    27.0300 hc         1 DLS       0.041367
     19 H23          1.6790   -15.8550    26.4110 hc         1 DLS       0.041367
     20 H            1.4600   -13.5950    27.3810 hn         1 DLS       0.288500
     21 HCA         -1.2560   -12.5000    26.7880 h1         1 DLS       0.061700
     22 HB2          0.3690   -11.7160    29.2670 hc         1 DLS       0.046700
     23 HB3         -1.0560   -10.8730    28.6710 hc         1 DLS       0.046700
     24 HG2         -2.4390   -12.9530    29.0350 hc         1 DLS       0.037200
     25 HG3         -1.0120   -13.7880    29.6370 hc         1 DLS       0.037200
     26 HD2         -2.3190   -13.1040    31.5360 hc         1 DLS       0.033700
     27 HD3         -0.8320   -12.1610    31.5330 hc         1 DLS       0.033700
     28 HE2         -2.0620   -10.1920    30.6040 h1         1 DLS       0.052200
     29 HE3         -3.5570   -11.1610    30.5250 h1         1 DLS       0.052200
     30 HZ          -2.5720   -11.2470    33.1980 hn         1 DLS       0.308500
     31 HH31        -4.7620    -7.7790    32.2140 hc         1 DLS       0.058033
     32 HH32        -3.3750    -8.2650    31.1580 hc         1 DLS       0.058033
     33 HH33        -4.8110    -9.1920    31.0840 hc         1 DLS       0.058033
@<TRIPOS>BOND
     1     1     3 1   
     2     1    17 1   
     3     1    18 1   
     4     1    19 1   
     5     2     3 2   
     6     3     4 1   
     7     4     5 1   
     8     4    20 1   
     9     5     6 1   
    10     5     8 1   
    11     5    21 1   
    12     6     7 1   
    13     6    16 1   
    14     8     9 1   
    15     8    22 1   
    16     8    23 1   
    17     9    10 1   
    18     9    24 1   
    19     9    25 1   
    20    10    11 1   
    21    10    26 1   
    22    10    27 1   
    23    11    12 1   
    24    11    28 1   
    25    11    29 1   
    26    12    15 1   
    27    12    30 1   
    28    13    15 1   
    29    13    31 1   
    30    13    32 1   
    31    13    33 1   
    32    14    15 2   
@<TRIPOS>SUBSTRUCTURE
     1 DLS         1 TEMP              0 ****  ****    0 ROOT
