@<TRIPOS>MOLECULE
DLS
   33    32     1     0     0
SMALL
abcg2


@<TRIPOS>ATOM
      1 C2           0.8590   -16.0890    26.8960 c3         1 DLS      -0.178100
      2 O1          -0.5420   -14.6460    25.6050 o          1 DLS      -0.629100
      3 C1           0.1150   -14.8020    26.6270 c          1 DLS       0.603100
      4 N            0.2130   -13.8700    27.5870 ns         1 DLS      -0.462900
      5 CA          -0.2930   -12.5240    27.4430 c3         1 DLS      -0.042300
      6 C            0.6120   -11.6180    26.5570 c          1 DLS       0.718000
      7 O            1.7120   -12.0700    26.1990 o          1 DLS      -0.721500
      8 CB          -0.4970   -11.9000    28.8230 c3         1 DLS      -0.077400
      9 CG          -1.5250   -12.6260    29.6840 c3         1 DLS      -0.076400
     10 CD          -1.7200   -12.0070    31.0650 c3         1 DLS      -0.091400
     11 CE          -2.3580   -10.6240    31.0230 c3         1 DLS       0.101000
     12 NZ          -2.5320   -10.0910    32.3580 ns         1 DLS      -0.510900
     13 CH3         -4.7430    -9.1670    31.9170 c3         1 DLS      -0.178100
     14 OH          -3.5560    -8.9290    33.9800 o          1 DLS      -0.634100
     15 CH          -3.5670    -9.3780    32.8400 c          1 DLS       0.604100
     16 OXT          0.1290   -10.4960    26.3010 o          1 DLS      -0.721500
     17 H21          1.3050   -16.1380    27.8880 hc         1 DLS       0.041367
     18 H22          0.1830   -16.9350    26.7770 hc         1 DLS       0.041367
     19 H23          1.6540   -16.2050    26.1590 hc         1 DLS       0.041367
     20 H            0.8680   -14.0370    28.3340 hn         1 DLS       0.288500
     21 HCA         -1.2710   -12.5870    26.9560 h1         1 DLS       0.061700
     22 HB2          0.4620   -11.8630    29.3540 hc         1 DLS       0.046700
     23 HB3         -0.8000   -10.8640    28.6680 hc         1 DLS       0.046700
     24 HG2         -2.4860   -12.6520    29.1580 hc         1 DLS       0.037200
     25 HG3         -1.2250   -13.6690    29.8150 hc         1 DLS       0.037200
     26 HD2         -2.3530   -12.6610    31.6710 hc         1 DLS       0.033700
     27 HD3         -0.7540   -11.9480    31.5790 hc         1 DLS       0.033700
     28 HE2         -1.7530    -9.9390    30.4220 h1         1 DLS       0.052200
     29 HE3         -3.3290   -10.6970    30.5320 h1         1 DLS       0.052200
     30 HZ          -1.7390   -10.1760    32.9780 hn         1 DLS       0.308500
     31 HH31        -5.4910    -8.5600    32.4200 hc         1 DLS       0.058033
     32 HH32        -4.4460    -8.6630    30.9970 hc         1 DLS       0.058033
     33 HH33        -5.2010   -10.1160    31.6330 hc         1 DLS       0.058033
@<TRIPOS>BOND
     1     1     3 1   
     2     1    17 1   
     3     1    18 1   
     4     1    19 1   
     5     2     3 2   
     6     3     4 1   
     7     4     5 1   
     8     4    20 1   
     9     5     6 1   
    10     5     8 1   
    11     5    21 1   
    12     6     7 1   
    13     6    16 1   
    14     8     9 1   
    15     8    22 1   
    16     8    23 1   
    17     9    10 1   
    18     9    24 1   
    19     9    25 1   
    20    10    11 1   
    21    10    26 1   
    22    10    27 1   
    23    11    12 1   
    24    11    28 1   
    25    11    29 1   
    26    12    15 1   
    27    12    30 1   
    28    13    15 1   
    29    13    31 1   
    30    13    32 1   
    31    13    33 1   
    32    14    15 2   
@<TRIPOS>SUBSTRUCTURE
     1 DLS         1 TEMP              0 ****  ****    0 ROOT
