@<TRIPOS>MOLECULE
DLT
   28    27     1     0     0
SMALL
No Charge or Current Charge


@<TRIPOS>ATOM
      1 CAF         -2.5230    -0.6600    -0.0280 c3         1 DLT       0.046600
      2 CAE         -3.9190    -0.0050     0.0430 c3         1 DLT       0.176600
      3 CAA         -1.2930     1.2410    -1.1400 c3         1 DLT       0.076400
      4 CAH         -1.2660     1.0260     1.3650 c3         1 DLT       0.076400
      5 CAJ         -0.0320    -0.6490    -0.0540 c3         1 DLT       0.094600
      6 CAK          1.3560     0.0260    -0.0110 c3         1 DLT      -0.076400
      7 CAL          2.5130    -0.9970    -0.1120 c3         1 DLT      -0.219400
      8 CAM          3.8690    -0.2760    -0.0640 c          1 DLT       0.724000
      9 N3          -1.2770     0.2490     0.0360 n4         1 DLT      -0.498000
     10 OAC          4.3730    -0.0730     1.0300 o          1 DLT      -0.707000
     11 F26         -4.8740    -0.9620    -0.0290 f          1 DLT      -0.234000
     12 OAB          4.3500     0.1110    -1.1180 o          1 DLT      -0.707000
     13 HAF1        -2.4470    -1.3760     0.7930 hx         1 DLT       0.104700
     14 HAF2        -2.4660    -1.2250    -0.9610 hx         1 DLT       0.104700
     15 HAE1        -4.0380     0.5390     0.9880 h1         1 DLT       0.063700
     16 HAE2        -4.0570     0.6920    -0.7920 h1         1 DLT       0.063700
     17 HAA1        -2.1870     1.8640    -1.0790 hx         1 DLT       0.092867
     18 HAA2        -0.4060     1.8750    -1.0900 hx         1 DLT       0.092867
     19 HAA3        -1.2940     0.6840    -2.0800 hx         1 DLT       0.092867
     20 HAH1        -1.2480     0.3170     2.1950 hx         1 DLT       0.092867
     21 HAH2        -0.3790     1.6610     1.4040 hx         1 DLT       0.092867
     22 HAH3        -2.1600     1.6480     1.4300 hx         1 DLT       0.092867
     23 HAJ1        -0.1090    -1.2130    -0.9870 hx         1 DLT       0.080200
     24 HAJ2        -0.0900    -1.3630     0.7700 hx         1 DLT       0.080200
     25 HAK1         1.4400     0.7440    -0.8360 hc         1 DLT       0.065200
     26 HAK2         1.4590     0.5930     0.9220 hc         1 DLT       0.065200
     27 HAL1         2.4030    -1.6610     0.7550 hc         1 DLT       0.030700
     28 HAL2         2.3840    -1.5040    -1.0760 hc         1 DLT       0.030700
@<TRIPOS>BOND
     1     1     2 1   
     2     1     9 1   
     3     1    13 1   
     4     1    14 1   
     5     2    11 1   
     6     2    15 1   
     7     2    16 1   
     8     3     9 1   
     9     3    17 1   
    10     3    18 1   
    11     3    19 1   
    12     4     9 1   
    13     4    20 1   
    14     4    21 1   
    15     4    22 1   
    16     5     6 1   
    17     5     9 1   
    18     5    23 1   
    19     5    24 1   
    20     6     7 1   
    21     6    25 1   
    22     6    26 1   
    23     7     8 1   
    24     7    27 1   
    25     7    28 1   
    26     8    10 1   
    27     8    12 1   
@<TRIPOS>SUBSTRUCTURE
     1 DLT         1 TEMP              0 ****  ****    0 ROOT
