@<TRIPOS>MOLECULE
DLT
   28    27     1     0     0
SMALL
abcg2


@<TRIPOS>ATOM
      1 CAF         -2.4490    -0.6680     0.0190 c3         1 DLT       0.046600
      2 CAE         -3.8130     0.0050     0.0250 c3         1 DLT       0.176600
      3 CAA         -1.2950     1.1170    -1.2080 c3         1 DLT       0.076400
      4 CAH         -1.2930     1.1310     1.2250 c3         1 DLT       0.076400
      5 CAJ         -0.0380    -0.6130     0.0160 c3         1 DLT       0.094600
      6 CAK          1.2950     0.1120     0.0050 c3         1 DLT      -0.076400
      7 CAL          2.4150    -0.9200     0.0080 c3         1 DLT      -0.219400
      8 CAM          3.8380    -0.3290    -0.0150 c          1 DLT       0.724000
      9 N3          -1.2750     0.2640     0.0130 n4         1 DLT      -0.498000
     10 OAC          4.7670    -1.1620     0.0010 o          1 DLT      -0.707000
     11 F26         -4.7400    -1.0260     0.0280 f          1 DLT      -0.234000
     12 OAB          3.9510     0.9110    -0.0490 o          1 DLT      -0.707000
     13 HAF1        -2.3510    -1.2970     0.9050 hx         1 DLT       0.104700
     14 HAF2        -2.3590    -1.3000    -0.8640 hx         1 DLT       0.104700
     15 HAE1        -3.9770     0.6130     0.9130 h1         1 DLT       0.063700
     16 HAE2        -3.9840     0.6120    -0.8630 h1         1 DLT       0.063700
     17 HAA1        -2.1860     1.7370    -1.2100 hx         1 DLT       0.092867
     18 HAA2        -0.4230     1.7630    -1.2100 hx         1 DLT       0.092867
     19 HAA3        -1.2850     0.4800    -2.0890 hx         1 DLT       0.092867
     20 HAH1        -1.2900     0.5030     2.1120 hx         1 DLT       0.092867
     21 HAH2        -0.4180     1.7720     1.2210 hx         1 DLT       0.092867
     22 HAH3        -2.1810     1.7550     1.2160 hx         1 DLT       0.092867
     23 HAJ1        -0.1280    -1.2560    -0.8600 hx         1 DLT       0.080200
     24 HAJ2        -0.1220    -1.2420     0.9030 hx         1 DLT       0.080200
     25 HAK1         1.3910     0.7430    -0.8780 hc         1 DLT       0.065200
     26 HAK2         1.3980     0.7580     0.8770 hc         1 DLT       0.065200
     27 HAL1         2.3240    -1.5670     0.8880 hc         1 DLT       0.030700
     28 HAL2         2.3080    -1.5880    -0.8540 hc         1 DLT       0.030700
@<TRIPOS>BOND
     1     1     2 1   
     2     1     9 1   
     3     1    13 1   
     4     1    14 1   
     5     2    11 1   
     6     2    15 1   
     7     2    16 1   
     8     3     9 1   
     9     3    17 1   
    10     3    18 1   
    11     3    19 1   
    12     4     9 1   
    13     4    20 1   
    14     4    21 1   
    15     4    22 1   
    16     5     6 1   
    17     5     9 1   
    18     5    23 1   
    19     5    24 1   
    20     6     7 1   
    21     6    25 1   
    22     6    26 1   
    23     7     8 1   
    24     7    27 1   
    25     7    28 1   
    26     8    10 1   
    27     8    12 1   
@<TRIPOS>SUBSTRUCTURE
     1 DLT         1 TEMP              0 ****  ****    0 ROOT
