@<TRIPOS>MOLECULE
DLU
   49    52     1     0     0
SMALL
No Charge or Current Charge


@<TRIPOS>ATOM
      1 CAA          6.7010     1.6700    -1.4070 c3         1 DLU      -0.109100
      2 OAB         -1.2650    -3.0400    -0.3350 o          1 DLU      -0.637100
      3 OAC          3.6310     2.6410     0.2830 o          1 DLU      -0.510000
      4 OAD         -1.3000     1.1280     0.0520 o          1 DLU      -0.620100
      5 OAE          0.8410     2.5890     0.1550 oh         1 DLU      -0.475100
      6 CAH         -6.5340     0.6730    -1.2070 ca         1 DLU      -0.173000
      7 CAI         -5.4820    -0.2560    -1.2980 ca         1 DLU      -0.049000
      8 CAJ         -6.6060     0.3700     1.2050 ca         1 DLU      -0.204000
      9 CAK          1.0730    -1.5960    -0.1900 cc         1 DLU       0.123000
     10 CAL          6.6680    -1.1990     0.4770 c6         1 DLU       0.158600
     11 CAM          7.0150     0.2830     0.7470 c6         1 DLU      -0.117400
     12 CAN         -3.8490    -1.8800    -0.2400 c3         1 DLU       0.160300
     13 CAO          3.5520    -1.4930    -0.0580 c6         1 DLU       0.161800
     14 NAP         -2.5600    -1.2030    -0.1760 ns         1 DLU      -0.499900
     15 OAQ          5.9340    -1.3190    -0.7560 os         1 DLU      -0.449000
     16 CAS          3.5640     1.4410     0.0460 c          1 DLU       0.597200
     17 CAT         -7.0910     0.9820     0.0420 ca         1 DLU       0.204000
     18 CAU         -5.5580    -0.5570     1.1160 ca         1 DLU       0.218000
     19 CAV         -4.9890    -0.8790    -0.1340 ca         1 DLU      -0.169300
     20 CAW          1.0380     1.2460     0.0530 cc         1 DLU       0.069900
     21 CAX         -0.1470    -0.9460    -0.1400 cd         1 DLU      -0.370400
     22 CAY          2.2790     0.6320    -0.0120 cd         1 DLU      -0.063200
     23 CAZ         -0.2380     0.5120    -0.0060 c          1 DLU       0.544500
     24 CBA          6.0990     1.2660    -0.0320 c6         1 DLU       0.115700
     25 CBB          4.6380    -0.6650    -0.7810 c6         1 DLU       0.338700
     26 NBC          4.7350     0.6900    -0.1820 n          1 DLU      -0.452800
     27 NBD          2.2320    -0.7940    -0.1010 na         1 DLU      -0.445200
     28 HAA          6.8520     0.8040    -2.0620 hc         1 DLU       0.046700
     29 HAAA         6.0400     2.3710    -1.9300 hc         1 DLU       0.046700
     30 HAAB         7.6710     2.1640    -1.2810 hc         1 DLU       0.046700
     31 HAI         -5.0520    -0.4900    -2.2700 ha         1 DLU       0.121000
     32 HAJ         -7.0390     0.6140     2.1700 ha         1 DLU       0.150000
     33 HAK          1.2020    -2.6750    -0.2770 h4         1 DLU       0.236000
     34 HAL          7.5880    -1.7970     0.4120 h1         1 DLU       0.055700
     35 HALA         6.0640    -1.6020     1.3020 h1         1 DLU       0.055700
     36 HAM          6.9140     0.4710     1.8240 hc         1 DLU       0.059700
     37 HAMA         8.0710     0.4740     0.5090 hc         1 DLU       0.059700
     38 HAN         -3.9180    -2.4240    -1.1920 h1         1 DLU       0.066700
     39 HANA        -3.9090    -2.6180     0.5720 h1         1 DLU       0.066700
     40 HAO          3.4810    -2.4770    -0.5400 h1         1 DLU       0.081700
     41 HAOA         3.8380    -1.6490     0.9910 h1         1 DLU       0.081700
     42 HNAP        -2.5370    -0.1920    -0.0830 hn         1 DLU       0.352500
     43 HBA          6.0410     2.1910     0.5610 h1         1 DLU       0.091700
     44 HBB          4.3270    -0.5450    -1.8300 h2         1 DLU       0.086700
     45 H20         -0.1400     2.7020     0.1710 ho         1 DLU       0.500000
     46 CAR         -1.3430    -1.8250    -0.2250 c          1 DLU       0.645300
     47 HAH         -6.9160     1.1550    -2.1040 ha         1 DLU       0.137000
     48 FAF         -8.1000     1.8760     0.1250 f          1 DLU      -0.172000
     49 FAG         -5.0970    -1.1360     2.2470 f          1 DLU      -0.164000
@<TRIPOS>BOND
     1     1    24 1   
     2     1    28 1   
     3     1    29 1   
     4     1    30 1   
     5     2    46 2   
     6     3    16 2   
     7     4    23 2   
     8     5    20 1   
     9     5    45 1   
    10     6     7 ar  
    11     6    17 ar  
    12     6    47 1   
    13     7    19 ar  
    14     7    31 1   
    15     8    17 ar  
    16     8    18 ar  
    17     8    32 1   
    18     9    21 2   
    19     9    27 1   
    20     9    33 1   
    21    10    11 1   
    22    10    15 1   
    23    10    34 1   
    24    10    35 1   
    25    11    24 1   
    26    11    36 1   
    27    11    37 1   
    28    12    14 1   
    29    12    19 1   
    30    12    38 1   
    31    12    39 1   
    32    13    25 1   
    33    13    27 1   
    34    13    40 1   
    35    13    41 1   
    36    14    42 1   
    37    14    46 1   
    38    15    25 1   
    39    16    22 1   
    40    16    26 1   
    41    17    48 1   
    42    18    19 ar  
    43    18    49 1   
    44    20    22 2   
    45    20    23 1   
    46    21    23 1   
    47    21    46 1   
    48    22    27 1   
    49    24    26 1   
    50    24    43 1   
    51    25    26 1   
    52    25    44 1   
@<TRIPOS>SUBSTRUCTURE
     1 DLU         1 TEMP              0 ****  ****    0 ROOT
