@<TRIPOS>MOLECULE
DLU
   49    52     1     0     0
SMALL
abcg2


@<TRIPOS>ATOM
      1 CAA          6.6670     0.9480    -1.4970 c3         1 DLU      -0.109100
      2 OAB         -1.3400    -2.6850    -0.5660 o          1 DLU      -0.637100
      3 OAC          3.6660     2.5990    -0.0860 o          1 DLU      -0.510000
      4 OAD         -1.1030     1.5020    -1.2340 o          1 DLU      -0.620100
      5 OAE          1.1330     2.7370    -0.9180 oh         1 DLU      -0.475100
      6 CAH         -6.8730     0.4560    -0.1090 ca         1 DLU      -0.173000
      7 CAI         -5.9310    -0.1610    -0.9210 ca         1 DLU      -0.049000
      8 CAJ         -5.6120    -0.2410     1.8350 ca         1 DLU      -0.204000
      9 CAK          0.9730    -1.2570    -0.2640 cc         1 DLU       0.123000
     10 CAL          6.1850    -0.8600     1.4170 c6         1 DLU       0.158600
     11 CAM          6.8250     0.4580     1.0080 c6         1 DLU      -0.117400
     12 CAN         -3.8050    -1.4840    -1.2840 c3         1 DLU       0.160300
     13 CAO          3.2780    -1.3470     0.4240 c6         1 DLU       0.161800
     14 NAP         -2.5140    -0.8460    -1.1720 ns         1 DLU      -0.499900
     15 OAQ          5.6550    -1.5100     0.2680 os         1 DLU      -0.449000
     16 CAS          3.5820     1.3840    -0.1490 c          1 DLU       0.597200
     17 CAT         -6.6910     0.4030     1.2570 ca         1 DLU       0.204000
     18 CAU         -4.7060    -0.8430     0.9860 ca         1 DLU       0.218000
     19 CAV         -4.8280    -0.8260    -0.3970 ca         1 DLU      -0.169300
     20 CAW          1.1390     1.4370    -0.6800 cc         1 DLU       0.069900
     21 CAX         -0.1840    -0.6250    -0.6530 cd         1 DLU      -0.370400
     22 CAY          2.2480     0.7360    -0.3030 cd         1 DLU      -0.063200
     23 CAZ         -0.1540     0.7780    -0.8800 c          1 DLU       0.544500
     24 CBA          6.0170     1.1140    -0.1270 c6         1 DLU       0.115700
     25 CBB          4.5400    -0.8740    -0.2720 c6         1 DLU       0.338700
     26 NBC          4.6580     0.5660    -0.1210 n          1 DLU      -0.452800
     27 NBD          2.1270    -0.6240    -0.0990 na         1 DLU      -0.445200
     28 HAA          6.8190    -0.0990    -1.7600 hc         1 DLU       0.046700
     29 HAAA         6.0650     1.4180    -2.2760 hc         1 DLU       0.046700
     30 HAAB         7.6440     1.4310    -1.4940 hc         1 DLU       0.046700
     31 HAI         -6.0580    -0.1250    -1.9950 ha         1 DLU       0.121000
     32 HAJ         -5.4820    -0.2750     2.9090 ha         1 DLU       0.150000
     33 HAK          0.9800    -2.3200    -0.0670 h4         1 DLU       0.236000
     34 HAL          6.9130    -1.5430     1.8500 h1         1 DLU       0.055700
     35 HALA         5.4060    -0.6970     2.1700 h1         1 DLU       0.055700
     36 HAM          6.8720     1.1170     1.8770 hc         1 DLU       0.059700
     37 HAMA         7.8510     0.2970     0.6740 hc         1 DLU       0.059700
     38 HAN         -4.1530    -1.4370    -2.3180 h1         1 DLU       0.066700
     39 HANA        -3.6930    -2.5380    -1.0350 h1         1 DLU       0.066700
     40 HAO          3.1360    -2.4080     0.2330 h1         1 DLU       0.081700
     41 HAOA         3.3440    -1.1900     1.5030 h1         1 DLU       0.081700
     42 HNAP        -2.4500     0.1510    -1.3420 hn         1 DLU       0.352500
     43 HBA          5.9190     2.1770     0.0740 h1         1 DLU       0.091700
     44 HBB          4.5030    -1.1540    -1.3310 h2         1 DLU       0.086700
     45 H20          0.2210     2.9520    -1.1900 ho         1 DLU       0.500000
     46 CAR         -1.3980    -1.4820    -0.7900 c          1 DLU       0.645300
     47 HAH         -7.7270     0.9650    -0.5340 ha         1 DLU       0.137000
     48 FAF         -7.5840     0.9930     2.0620 f          1 DLU      -0.172000
     49 FAG         -3.6600    -1.4780     1.5310 f          1 DLU      -0.164000
@<TRIPOS>BOND
     1     1    24 1   
     2     1    28 1   
     3     1    29 1   
     4     1    30 1   
     5     2    46 2   
     6     3    16 2   
     7     4    23 2   
     8     5    20 1   
     9     5    45 1   
    10     6     7 ar  
    11     6    17 ar  
    12     6    47 1   
    13     7    19 ar  
    14     7    31 1   
    15     8    17 ar  
    16     8    18 ar  
    17     8    32 1   
    18     9    21 2   
    19     9    27 1   
    20     9    33 1   
    21    10    11 1   
    22    10    15 1   
    23    10    34 1   
    24    10    35 1   
    25    11    24 1   
    26    11    36 1   
    27    11    37 1   
    28    12    14 1   
    29    12    19 1   
    30    12    38 1   
    31    12    39 1   
    32    13    25 1   
    33    13    27 1   
    34    13    40 1   
    35    13    41 1   
    36    14    42 1   
    37    14    46 1   
    38    15    25 1   
    39    16    22 1   
    40    16    26 1   
    41    17    48 1   
    42    18    19 ar  
    43    18    49 1   
    44    20    22 2   
    45    20    23 1   
    46    21    23 1   
    47    21    46 1   
    48    22    27 1   
    49    24    26 1   
    50    24    43 1   
    51    25    26 1   
    52    25    44 1   
@<TRIPOS>SUBSTRUCTURE
     1 DLU         1 TEMP              0 ****  ****    0 ROOT
