@<TRIPOS>MOLECULE
DLW
   49    51     1     0     0
SMALL
bcc


@<TRIPOS>ATOM
      1 C10          0.2130     0.2200     0.1940 ce         1 DLW      -0.502400
      2 C12          2.5440     0.0830     1.2320 c6         1 DLW      -0.168400
      3 C21         -4.5260    -1.8390     1.5810 c3         1 DLW       0.142400
      4 C11          1.0630     0.3730     1.3670 c          1 DLW       0.615300
      5 C16         -3.7960     1.4380    -1.8550 ca         1 DLW      -0.087000
      6 C14         -1.1650     0.5770     0.2460 c2         1 DLW       0.332800
      7 C22         -3.6470    -2.6780     2.4770 c3         1 DLW      -0.097100
      8 C15         -3.3260     0.5380    -0.9120 ca         1 DLW       0.066600
      9 C13         -1.7870     1.2960     1.3980 c3         1 DLW      -0.087900
     10 C20         -4.2240    -0.2110    -0.1360 ca         1 DLW       0.152100
     11 C17         -5.1600     1.6240    -2.0340 ca         1 DLW      -0.160000
     12 C18         -6.0480     0.8980    -1.2570 ca         1 DLW      -0.081000
     13 C19         -5.5920    -0.0140    -0.3130 ca         1 DLW      -0.214000
     14 C01          4.5500    -0.0600    -0.2910 ca         1 DLW      -0.075300
     15 C02          5.4210     0.8740    -0.8440 ca         1 DLW      -0.122500
     16 C03          6.7790     0.6040    -0.9650 ca         1 DLW      -0.127500
     17 C04          7.2870    -0.6130    -0.5320 ca         1 DLW      -0.128000
     18 C05          6.4270    -1.5540     0.0220 ca         1 DLW      -0.127500
     19 C06          5.0720    -1.2780     0.1410 ca         1 DLW      -0.122500
     20 C07          3.0770     0.2450    -0.1820 c6         1 DLW      -0.003400
     21 C08          2.2430    -0.6390    -1.0970 c6         1 DLW      -0.168400
     22 C09          0.7660    -0.3390    -1.0210 c          1 DLW       0.615300
     23 N01         -1.9350     0.3130    -0.7930 nu         1 DLW      -0.611400
     24 O01          0.6470     0.6880     2.4750 o          1 DLW      -0.608600
     25 O02          0.0860    -0.5990    -2.0250 o          1 DLW      -0.608600
     26 O03         -3.6790    -1.0720     0.7320 os         1 DLW      -0.319900
     27 H1           3.0760     0.7260     1.9360 hc         1 DLW       0.069700
     28 H2           2.7030    -0.9470     1.5740 hc         1 DLW       0.069700
     29 H3          -5.1820    -2.4770     0.9810 h1         1 DLW       0.035700
     30 H4          -5.1600    -1.1760     2.1780 h1         1 DLW       0.035700
     31 H5          -3.0820     1.9970    -2.4460 ha         1 DLW       0.147000
     32 H6          -4.2730    -3.2870     3.1280 hc         1 DLW       0.051700
     33 H7          -3.0120    -3.3490     1.8980 hc         1 DLW       0.051700
     34 H8          -3.0130    -2.0550     3.1070 hc         1 DLW       0.051700
     35 H9          -1.1570     2.1180     1.7250 hc         1 DLW       0.071700
     36 H10         -2.7600     1.6980     1.1260 hc         1 DLW       0.071700
     37 H11         -1.9150     0.6310     2.2490 hc         1 DLW       0.071700
     38 H12         -5.5200     2.3310    -2.7690 ha         1 DLW       0.141000
     39 H13         -7.1140     1.0340    -1.3810 ha         1 DLW       0.135000
     40 H14         -6.3120    -0.5700     0.2710 ha         1 DLW       0.140000
     41 H15          5.0350     1.8280    -1.1850 ha         1 DLW       0.129000
     42 H16          7.4380     1.3460    -1.3960 ha         1 DLW       0.129500
     43 H17          8.3440    -0.8270    -0.6240 ha         1 DLW       0.130000
     44 H18          6.8120    -2.5050     0.3660 ha         1 DLW       0.129500
     45 H19          4.4210    -2.0260     0.5800 ha         1 DLW       0.129000
     46 H20          2.9290     1.2860    -0.4890 hc         1 DLW       0.059700
     47 H21          2.5540    -0.5420    -2.1390 hc         1 DLW       0.069700
     48 H22          2.3810    -1.6920    -0.8250 hc         1 DLW       0.069700
     49 H23         -1.4370    -0.1330    -1.5760 hn         1 DLW       0.505800
@<TRIPOS>BOND
     1     1     4 1   
     2     1     6 2   
     3     1    22 1   
     4     2     4 1   
     5     2    20 1   
     6     2    27 1   
     7     2    28 1   
     8     3     7 1   
     9     3    26 1   
    10     3    29 1   
    11     3    30 1   
    12     4    24 2   
    13     5     8 ar  
    14     5    11 ar  
    15     5    31 1   
    16     6     9 1   
    17     6    23 1   
    18     7    32 1   
    19     7    33 1   
    20     7    34 1   
    21     8    10 ar  
    22     8    23 1   
    23     9    35 1   
    24     9    36 1   
    25     9    37 1   
    26    10    13 ar  
    27    10    26 1   
    28    11    12 ar  
    29    11    38 1   
    30    12    13 ar  
    31    12    39 1   
    32    13    40 1   
    33    14    15 ar  
    34    14    19 ar  
    35    14    20 1   
    36    15    16 ar  
    37    15    41 1   
    38    16    17 ar  
    39    16    42 1   
    40    17    18 ar  
    41    17    43 1   
    42    18    19 ar  
    43    18    44 1   
    44    19    45 1   
    45    20    21 1   
    46    20    46 1   
    47    21    22 1   
    48    21    47 1   
    49    21    48 1   
    50    22    25 2   
    51    23    49 1   
@<TRIPOS>SUBSTRUCTURE
     1 DLW         1 TEMP              0 ****  ****    0 ROOT
