@<TRIPOS>MOLECULE
DLW
   49    51     1     0     0
SMALL
No Charge or Current Charge


@<TRIPOS>ATOM
      1 C10          0.1870     0.9440    -0.0340 ce         1 DLW      -0.502400
      2 C12          2.6130     1.4540     0.5540 c6         1 DLW      -0.168400
      3 C21         -3.6630    -2.2330     1.3990 c3         1 DLW       0.165600
      4 C11          1.2360     0.9640     1.0150 c          1 DLW       0.615300
      5 C16         -4.2420     1.6340    -1.5900 ca         1 DLW      -0.069000
      6 C14         -1.1200     1.1430     0.2580 c2         1 DLW       0.332800
      7 C22         -2.4580    -2.8940     2.0870 c3         1 DLW      -0.097100
      8 C15         -3.4140     0.8070    -0.8090 ca         1 DLW       0.205000
      9 C13         -1.7170     1.4900     1.6140 c3         1 DLW      -0.087900
     10 C20         -3.9890    -0.2880    -0.1020 ca         1 DLW       0.152100
     11 C17         -5.6260     1.4020    -1.6590 ca         1 DLW      -0.142000
     12 C18         -6.1970     0.3330    -0.9530 ca         1 DLW      -0.063000
     13 C19         -5.3840    -0.5120    -0.1780 ca         1 DLW      -0.196000
     14 C01          4.3070    -0.2720    -0.3200 ca         1 DLW      -0.075300
     15 C02          5.5110    -0.2510    -1.0530 ca         1 DLW      -0.104500
     16 C03          6.5570    -1.1330    -0.7290 ca         1 DLW      -0.109500
     17 C04          6.4070    -2.0450     0.3280 ca         1 DLW      -0.110000
     18 C05          5.2090    -2.0770     1.0610 ca         1 DLW      -0.109500
     19 C06          4.1630    -1.1950     0.7380 ca         1 DLW      -0.104500
     20 C07          3.1670     0.6910    -0.6860 c6         1 DLW      -0.003400
     21 C08          2.0460    -0.0430    -1.4700 c6         1 DLW      -0.168400
     22 C09          0.7090     0.6950    -1.4070 c          1 DLW       0.615300
     23 N01         -2.0350     1.0870    -0.7790 nu         1 DLW      -0.805000
     24 O01          1.0280     0.6820     2.1860 o          1 DLW      -0.608600
     25 O02          0.1010     0.9940    -2.4280 o          1 DLW      -0.608600
     26 O03         -3.1640    -1.1260     0.6330 os         1 DLW      -0.343100
     27 H1           2.4380     2.4780     0.1970 hc         1 DLW       0.069700
     28 H2           3.3210     1.4960     1.3910 hc         1 DLW       0.069700
     29 H3          -4.1610    -2.9650     0.7500 h1         1 DLW       0.035700
     30 H4          -4.3760    -1.8910     2.1610 h1         1 DLW       0.035700
     31 H5          -3.8110     2.4680    -2.1380 ha         1 DLW       0.129000
     32 H6          -2.7870    -3.7490     2.6890 hc         1 DLW       0.051700
     33 H7          -1.7380    -3.2530     1.3420 hc         1 DLW       0.051700
     34 H8          -1.9530    -2.1810     2.7480 hc         1 DLW       0.051700
     35 H9          -1.1260     2.2640     2.1140 hc         1 DLW       0.071700
     36 H10         -2.7380     1.8790     1.5400 hc         1 DLW       0.071700
     37 H11         -1.7420     0.6100     2.2650 hc         1 DLW       0.071700
     38 H12         -6.2570     2.0530    -2.2620 ha         1 DLW       0.123000
     39 H13         -7.2690     0.1560    -1.0090 ha         1 DLW       0.117000
     40 H14         -5.8540    -1.3370     0.3490 ha         1 DLW       0.122000
     41 H15          5.6400     0.4480    -1.8760 ha         1 DLW       0.111000
     42 H16          7.4840    -1.1100    -1.2990 ha         1 DLW       0.111500
     43 H17          7.2160    -2.7280     0.5780 ha         1 DLW       0.112000
     44 H18          5.0900    -2.7850     1.8780 ha         1 DLW       0.111500
     45 H19          3.2390    -1.2350     1.3110 ha         1 DLW       0.111000
     46 H20          3.5820     1.4550    -1.3600 hc         1 DLW       0.059700
     47 H21          2.3290    -0.2570    -2.5090 hc         1 DLW       0.069700
     48 H22          1.8800    -0.9900    -0.9410 hc         1 DLW       0.069700
     49 H23         -1.5930     1.2100    -1.6980 hn         1 DLW       0.561000
@<TRIPOS>BOND
     1     1     4 1   
     2     1     6 2   
     3     1    22 1   
     4     2     4 1   
     5     2    20 1   
     6     2    27 1   
     7     2    28 1   
     8     3     7 1   
     9     3    26 1   
    10     3    29 1   
    11     3    30 1   
    12     4    24 2   
    13     5     8 ar  
    14     5    11 ar  
    15     5    31 1   
    16     6     9 1   
    17     6    23 1   
    18     7    32 1   
    19     7    33 1   
    20     7    34 1   
    21     8    10 ar  
    22     8    23 1   
    23     9    35 1   
    24     9    36 1   
    25     9    37 1   
    26    10    13 ar  
    27    10    26 1   
    28    11    12 ar  
    29    11    38 1   
    30    12    13 ar  
    31    12    39 1   
    32    13    40 1   
    33    14    15 ar  
    34    14    19 ar  
    35    14    20 1   
    36    15    16 ar  
    37    15    41 1   
    38    16    17 ar  
    39    16    42 1   
    40    17    18 ar  
    41    17    43 1   
    42    18    19 ar  
    43    18    44 1   
    44    19    45 1   
    45    20    21 1   
    46    20    46 1   
    47    21    22 1   
    48    21    47 1   
    49    21    48 1   
    50    22    25 2   
    51    23    49 1   
@<TRIPOS>SUBSTRUCTURE
     1 DLW         1 TEMP              0 ****  ****    0 ROOT
