@<TRIPOS>MOLECULE
DLX
  113   114     1     0     0
SMALL
abcg2


@<TRIPOS>ATOM
      1 C47        130.2390   141.7410   150.6230 c3         1 DLX      -0.059900
      2 C46        127.4810   141.2290   147.6660 c3         1 DLX      -0.055900
      3 C45        123.6860   135.6920   149.5300 c3         1 DLX      -0.053900
      4 C44        123.4780   139.4140   145.1730 c3         1 DLX      -0.053900
      5 C43        120.5780   138.2410   141.9290 c3         1 DLX      -0.053900
      6 C42        120.8880   134.9610   139.6900 c3         1 DLX      -0.085100
      7 C41        117.7620   132.5390   135.5080 c3         1 DLX      -0.087100
      8 C40        118.9650   134.5950   134.7430 c3         1 DLX      -0.087100
      9 C39        118.8650   133.5390   135.8400 c3         1 DLX      -0.060700
     10 C38        118.6530   134.2090   137.1990 c3         1 DLX      -0.074400
     11 C36        118.5550   133.9690   139.7520 c3         1 DLX      -0.073400
     12 C35        119.8760   134.1650   140.5050 c3         1 DLX      -0.058700
     13 C34        119.5920   134.7760   141.8810 c3         1 DLX      -0.071400
     14 C33        120.7720   134.8390   142.8580 c3         1 DLX      -0.063400
     15 C32        121.6470   136.1020   142.8420 c3         1 DLX      -0.041200
     16 C31        120.9000   137.3850   143.1200 c2         1 DLX      -0.109400
     17 C30        120.5730   137.7810   144.3520 c2         1 DLX      -0.221200
     18 C29        120.9030   137.0830   145.6350 c3         1 DLX      -0.035200
     19 C28        121.9330   137.8530   146.4770 c3         1 DLX      -0.036200
     20 C27        123.2500   138.0560   145.7690 c2         1 DLX      -0.102400
     21 C26        124.1740   137.1000   145.6690 c2         1 DLX      -0.225200
     22 C25        124.1240   135.7290   146.2640 c3         1 DLX      -0.035200
     23 C24        125.1100   135.5770   147.4380 c3         1 DLX      -0.034200
     24 C23        124.6850   136.3760   148.6410 c2         1 DLX      -0.115400
     25 C22        125.1020   137.6160   148.9060 c2         1 DLX      -0.213200
     26 C21        126.0740   138.4480   148.1290 c3         1 DLX      -0.036200
     27 C20        127.1000   139.1290   149.0420 c3         1 DLX      -0.039200
     28 C19        128.0750   140.0110   148.3090 c2         1 DLX      -0.112400
     29 C18        129.3740   139.7030   148.2900 c2         1 DLX      -0.220200
     30 C17        130.5030   140.4420   147.6440 c3         1 DLX      -0.033200
     31 C16        131.6050   140.8760   148.6270 c3         1 DLX      -0.039200
     32 C15        131.2250   142.0230   149.5240 c2         1 DLX      -0.090400
     33 C14        131.7640   143.2280   149.3270 c2         1 DLX      -0.242200
     34 C13        131.4580   144.4710   150.1050 c3         1 DLX      -0.002000
     35 O12        131.4140   146.8570   151.5460 o          1 DLX      -0.507100
     36 O11        135.0540   143.3200   153.1350 o          1 DLX      -0.506100
     37 C10        133.0490   147.6090   153.6980 ca         1 DLX      -0.065000
     38 C09        133.8880   147.9110   154.7590 ca         1 DLX      -0.100000
     39 C08        134.8380   146.9900   155.1820 ca         1 DLX      -0.097000
     40 C07        134.9520   145.7640   154.5440 ca         1 DLX      -0.066000
     41 C06        133.3260   143.8790   151.6670 cc         1 DLX      -0.248200
     42 C05        132.4020   144.7490   151.2400 cd         1 DLX      -0.121400
     43 C04        132.2560   146.0670   151.9190 c          1 DLX       0.569900
     44 C03        133.1580   146.3810   153.0530 ca         1 DLX      -0.136600
     45 C02        134.1150   145.4570   153.4780 ca         1 DLX      -0.134600
     46 C01        134.2360   144.1500   152.7900 c          1 DLX       0.571900
     47 H1         130.3020   142.4610   151.4380 hc         1 DLX       0.043700
     48 H2         129.2140   141.7440   150.2500 hc         1 DLX       0.043700
     49 H3         130.4090   140.7490   151.0420 hc         1 DLX       0.043700
     50 H4         128.2240   141.8870   147.2210 hc         1 DLX       0.039033
     51 H5         126.7710   140.9610   146.8800 hc         1 DLX       0.039033
     52 H6         126.9190   141.8110   148.4020 hc         1 DLX       0.039033
     53 H7         123.3640   136.3290   150.3550 hc         1 DLX       0.037033
     54 H8         122.7930   135.3940   148.9740 hc         1 DLX       0.037033
     55 H9         124.1020   134.7740   149.9540 hc         1 DLX       0.037033
     56 H10        124.4380   139.4760   144.6600 hc         1 DLX       0.038700
     57 H11        122.6920   139.6710   144.4600 hc         1 DLX       0.038700
     58 H12        123.4620   140.1830   145.9500 hc         1 DLX       0.038700
     59 H13        119.9970   139.1210   142.2030 hc         1 DLX       0.038033
     60 H14        121.4970   138.5820   141.4430 hc         1 DLX       0.038033
     61 H15        120.0190   137.6900   141.1690 hc         1 DLX       0.038033
     62 H16        121.8410   135.0540   140.2090 hc         1 DLX       0.031700
     63 H17        121.0980   134.4800   138.7340 hc         1 DLX       0.031700
     64 H18        120.5220   135.9690   139.4810 hc         1 DLX       0.031700
     65 H19        117.7050   131.7240   136.2310 hc         1 DLX       0.031533
     66 H20        116.7870   133.0330   135.4890 hc         1 DLX       0.031533
     67 H21        117.9210   132.0900   134.5260 hc         1 DLX       0.031533
     68 H22        119.7790   135.2970   134.9350 hc         1 DLX       0.031533
     69 H23        119.1410   134.1420   133.7660 hc         1 DLX       0.031533
     70 H24        118.0390   135.1720   134.6770 hc         1 DLX       0.031533
     71 H25        119.8180   132.9960   135.8780 hc         1 DLX       0.043700
     72 H26        119.4240   134.9730   137.3340 hc         1 DLX       0.037700
     73 H27        117.6980   134.7500   137.1850 hc         1 DLX       0.037700
     74 H28        117.8420   132.5520   138.2950 hc         1 DLX       0.037700
     75 H29        119.5810   132.6530   138.3690 hc         1 DLX       0.037700
     76 H30        118.0750   134.9470   139.6160 hc         1 DLX       0.036700
     77 H31        117.8840   133.4000   140.4020 hc         1 DLX       0.036700
     78 H32        120.3020   133.1670   140.6770 hc         1 DLX       0.039700
     79 H33        119.1480   135.7700   141.7610 hc         1 DLX       0.038700
     80 H34        118.8100   134.1670   142.3460 hc         1 DLX       0.038700
     81 H35        120.3790   134.7320   143.8730 hc         1 DLX       0.035200
     82 H36        121.4180   133.9690   142.7020 hc         1 DLX       0.035200
     83 H37        122.4320   135.9720   143.5910 hc         1 DLX       0.045700
     84 H38        122.1660   136.1920   141.8860 hc         1 DLX       0.045700
     85 H39        120.0500   138.7290   144.4620 ha         1 DLX       0.163000
     86 H40        119.9930   136.9660   146.2320 hc         1 DLX       0.043200
     87 H41        121.2760   136.0760   145.4450 hc         1 DLX       0.043200
     88 H42        121.5130   138.8250   146.7510 hc         1 DLX       0.044700
     89 H43        122.0900   137.3180   147.4180 hc         1 DLX       0.044700
     90 H44        125.0970   137.3370   145.1430 ha         1 DLX       0.164000
     91 H45        123.1160   135.4740   146.5980 hc         1 DLX       0.042700
     92 H46        124.3820   134.9910   145.4980 hc         1 DLX       0.042700
     93 H47        125.1690   134.5190   147.7120 hc         1 DLX       0.044200
     94 H48        126.1090   135.8620   147.0990 hc         1 DLX       0.044200
     95 H49        124.6920   138.1060   149.7880 ha         1 DLX       0.162000
     96 H50        125.5160   139.2050   147.5680 hc         1 DLX       0.049200
     97 H51        126.5970   137.8500   147.3800 hc         1 DLX       0.049200
     98 H52        126.5630   139.7310   149.7870 hc         1 DLX       0.043700
     99 H53        127.6430   138.3610   149.5990 hc         1 DLX       0.043700
    100 H54        129.6790   138.8010   148.8180 ha         1 DLX       0.164000
    101 H55        130.9720   139.7800   146.9080 hc         1 DLX       0.046700
    102 H56        130.1590   141.3170   147.0890 hc         1 DLX       0.046700
    103 H57        131.8930   140.0120   149.2370 hc         1 DLX       0.045700
    104 H58        132.4880   141.1540   148.0470 hc         1 DLX       0.045700
    105 H59        132.4980   143.3430   148.5340 ha         1 DLX       0.171000
    106 H60        131.4780   145.3310   149.4300 hc         1 DLX       0.070200
    107 H61        130.4420   144.4530   150.5080 hc         1 DLX       0.070200
    108 H62        132.3110   148.3280   153.3700 ha         1 DLX       0.137000
    109 H63        133.8030   148.8680   155.2560 ha         1 DLX       0.121000
    110 H64        135.4910   147.2270   156.0120 ha         1 DLX       0.121000
    111 H65        135.6910   145.0480   154.8750 ha         1 DLX       0.138000
    112 H66        133.4340   142.9130   151.1890 ha         1 DLX       0.212000
    113 C37        118.6680   133.2600   138.3940 c3         1 DLX      -0.071400
@<TRIPOS>BOND
     1     1    32 1   
     2     1    47 1   
     3     1    48 1   
     4     1    49 1   
     5     2    28 1   
     6     2    50 1   
     7     2    51 1   
     8     2    52 1   
     9     3    24 1   
    10     3    53 1   
    11     3    54 1   
    12     3    55 1   
    13     4    20 1   
    14     4    56 1   
    15     4    57 1   
    16     4    58 1   
    17     5    16 1   
    18     5    59 1   
    19     5    60 1   
    20     5    61 1   
    21     6    12 1   
    22     6    62 1   
    23     6    63 1   
    24     6    64 1   
    25     7     9 1   
    26     7    65 1   
    27     7    66 1   
    28     7    67 1   
    29     8     9 1   
    30     8    68 1   
    31     8    69 1   
    32     8    70 1   
    33     9    10 1   
    34     9    71 1   
    35    10    72 1   
    36    10    73 1   
    37    10   113 1   
    38    11    12 1   
    39    11    76 1   
    40    11    77 1   
    41    11   113 1   
    42    12    13 1   
    43    12    78 1   
    44    13    14 1   
    45    13    79 1   
    46    13    80 1   
    47    14    15 1   
    48    14    81 1   
    49    14    82 1   
    50    15    16 1   
    51    15    83 1   
    52    15    84 1   
    53    16    17 2   
    54    17    18 1   
    55    17    85 1   
    56    18    19 1   
    57    18    86 1   
    58    18    87 1   
    59    19    20 1   
    60    19    88 1   
    61    19    89 1   
    62    20    21 2   
    63    21    22 1   
    64    21    90 1   
    65    22    23 1   
    66    22    91 1   
    67    22    92 1   
    68    23    24 1   
    69    23    93 1   
    70    23    94 1   
    71    24    25 2   
    72    25    26 1   
    73    25    95 1   
    74    26    27 1   
    75    26    96 1   
    76    26    97 1   
    77    27    28 1   
    78    27    98 1   
    79    27    99 1   
    80    28    29 2   
    81    29    30 1   
    82    29   100 1   
    83    30    31 1   
    84    30   101 1   
    85    30   102 1   
    86    31    32 1   
    87    31   103 1   
    88    31   104 1   
    89    32    33 2   
    90    33    34 1   
    91    33   105 1   
    92    34    42 1   
    93    34   106 1   
    94    34   107 1   
    95    35    43 2   
    96    36    46 2   
    97    37    38 ar  
    98    37    44 ar  
    99    37   108 1   
   100    38    39 ar  
   101    38   109 1   
   102    39    40 ar  
   103    39   110 1   
   104    40    45 ar  
   105    40   111 1   
   106    41    42 2   
   107    41    46 1   
   108    41   112 1   
   109    42    43 1   
   110    43    44 1   
   111    44    45 ar  
   112    45    46 1   
   113    74   113 1   
   114    75   113 1   
@<TRIPOS>SUBSTRUCTURE
     1 DLX         1 TEMP              0 ****  ****    0 ROOT
