@<TRIPOS>MOLECULE
DLX
  113   114     1     0     0
SMALL
No Charge or Current Charge


@<TRIPOS>ATOM
      1 C47        130.8590   141.1070   150.4810 c3         1 DLX      -0.059900
      2 C46        127.4910   141.9290   148.6940 c3         1 DLX      -0.055900
      3 C45        123.3190   136.3240   149.8500 c3         1 DLX      -0.053900
      4 C44        123.0160   139.6440   145.0580 c3         1 DLX      -0.053900
      5 C43        120.1200   138.1990   141.9720 c3         1 DLX      -0.053900
      6 C42        121.2030   135.0080   139.7050 c3         1 DLX      -0.085100
      7 C41        118.5110   132.1860   135.3630 c3         1 DLX      -0.087100
      8 C40        119.3960   134.4680   134.6650 c3         1 DLX      -0.087100
      9 C39        119.4110   133.3800   135.7620 c3         1 DLX      -0.060700
     10 C38        119.0420   133.9820   137.1460 c3         1 DLX      -0.074400
     11 C36        118.9910   133.6560   139.7310 c3         1 DLX      -0.073400
     12 C35        120.2930   134.0380   140.4990 c3         1 DLX      -0.058700
     13 C34        119.9240   134.5560   141.9230 c3         1 DLX      -0.071400
     14 C33        121.0980   134.8990   142.8820 c3         1 DLX      -0.063400
     15 C32        121.6440   136.3550   142.8490 c3         1 DLX      -0.041200
     16 C31        120.6180   137.4340   143.1900 c2         1 DLX      -0.109400
     17 C30        120.2380   137.7650   144.4390 c2         1 DLX      -0.221200
     18 C29        120.7140   137.1530   145.7470 c3         1 DLX      -0.035200
     19 C28        121.6640   138.0780   146.5400 c3         1 DLX      -0.036200
     20 C27        122.9930   138.3390   145.8370 c2         1 DLX      -0.102400
     21 C26        124.0710   137.5340   145.9080 c2         1 DLX      -0.225200
     22 C25        124.2020   136.2180   146.6570 c3         1 DLX      -0.035200
     23 C24        125.0190   136.3510   147.9640 c3         1 DLX      -0.034200
     24 C23        124.3090   137.1560   149.0500 c2         1 DLX      -0.115400
     25 C22        124.5270   138.4580   149.3190 c2         1 DLX      -0.213200
     26 C21        125.4700   139.4070   148.6000 c3         1 DLX      -0.036200
     27 C20        126.8110   139.5710   149.3460 c3         1 DLX      -0.039200
     28 C19        127.8100   140.4420   148.5960 c2         1 DLX      -0.112400
     29 C18        128.8710   139.9120   147.9560 c2         1 DLX      -0.220200
     30 C17        129.9480   140.6380   147.1660 c3         1 DLX      -0.033200
     31 C16        131.2430   140.8840   147.9730 c3         1 DLX      -0.039200
     32 C15        131.0570   141.8280   149.1530 c2         1 DLX      -0.090400
     33 C14        131.0950   143.1660   149.0060 c2         1 DLX      -0.242200
     34 C13        130.9090   144.2150   150.0890 c3         1 DLX      -0.002000
     35 O12        130.8560   145.8010   152.4240 o          1 DLX      -0.507100
     36 O11        135.6580   143.5760   151.2320 o          1 DLX      -0.506100
     37 C10        133.0120   146.3280   154.2080 ca         1 DLX      -0.065000
     38 C09        134.1130   146.5550   155.0490 ca         1 DLX      -0.100000
     39 C08        135.3560   145.9830   154.7450 ca         1 DLX      -0.097000
     40 C07        135.4990   145.1840   153.6010 ca         1 DLX      -0.066000
     41 C06        133.3880   143.8820   150.6830 cc         1 DLX      -0.248200
     42 C05        132.1410   144.4280   150.9550 cd         1 DLX      -0.121400
     43 C04        131.9410   145.2930   152.1590 c          1 DLX       0.569900
     44 C03        133.1410   145.5240   153.0510 ca         1 DLX      -0.136600
     45 C02        134.4000   144.9460   152.7440 ca         1 DLX      -0.134600
     46 C01        134.5810   144.0820   151.5190 c          1 DLX       0.571900
     47 H1         130.7610   141.7960   151.3260 hc         1 DLX       0.043700
     48 H2         129.9590   140.4820   150.4690 hc         1 DLX       0.043700
     49 H3         131.7120   140.4530   150.7010 hc         1 DLX       0.043700
     50 H4         128.2660   142.5630   148.2530 hc         1 DLX       0.039033
     51 H5         126.5510   142.1690   148.1840 hc         1 DLX       0.039033
     52 H6         127.3910   142.2400   149.7400 hc         1 DLX       0.039033
     53 H7         122.8180   136.9200   150.6210 hc         1 DLX       0.037033
     54 H8         122.5380   135.9020   149.2070 hc         1 DLX       0.037033
     55 H9         123.8210   135.4910   150.3560 hc         1 DLX       0.037033
     56 H10        123.9880   139.8130   144.5780 hc         1 DLX       0.038700
     57 H11        122.2580   139.6560   144.2680 hc         1 DLX       0.038700
     58 H12        122.8270   140.5000   145.7170 hc         1 DLX       0.038700
     59 H13        119.4000   138.9790   142.2500 hc         1 DLX       0.038033
     60 H14        120.9500   138.6940   141.4540 hc         1 DLX       0.038033
     61 H15        119.6240   137.5430   141.2500 hc         1 DLX       0.038033
     62 H16        122.1620   135.1470   140.2140 hc         1 DLX       0.031700
     63 H17        121.4470   134.6020   138.7180 hc         1 DLX       0.031700
     64 H18        120.7230   135.9840   139.5730 hc         1 DLX       0.031700
     65 H19        118.6270   131.3500   136.0630 hc         1 DLX       0.031533
     66 H20        117.4550   132.4810   135.3480 hc         1 DLX       0.031533
     67 H21        118.7770   131.8180   134.3650 hc         1 DLX       0.031533
     68 H22        120.0810   135.2860   134.9180 hc         1 DLX       0.031533
     69 H23        119.7110   134.0520   133.7000 hc         1 DLX       0.031533
     70 H24        118.3890   134.8880   134.5450 hc         1 DLX       0.031533
     71 H25        120.4410   133.0060   135.8280 hc         1 DLX       0.043700
     72 H26        119.6730   134.8600   137.3220 hc         1 DLX       0.037700
     73 H27        118.0100   134.3530   137.1120 hc         1 DLX       0.037700
     74 H28        118.4220   132.2160   138.2300 hc         1 DLX       0.037700
     75 H29        120.1540   132.4920   138.2980 hc         1 DLX       0.037700
     76 H30        118.3470   134.5400   139.6350 hc         1 DLX       0.036700
     77 H31        118.4310   132.9470   140.3540 hc         1 DLX       0.036700
     78 H32        120.8660   133.1120   140.6360 hc         1 DLX       0.039700
     79 H33        119.2400   135.4070   141.8480 hc         1 DLX       0.038700
     80 H34        119.3400   133.7660   142.4120 hc         1 DLX       0.038700
     81 H35        120.7580   134.6920   143.9040 hc         1 DLX       0.035200
     82 H36        121.9250   134.2020   142.7010 hc         1 DLX       0.035200
     83 H37        122.4680   136.4080   143.5700 hc         1 DLX       0.045700
     84 H38        122.1160   136.5680   141.8850 hc         1 DLX       0.045700
     85 H39        119.5220   138.5750   144.5850 ha         1 DLX       0.163000
     86 H40        119.8440   136.9240   146.3740 hc         1 DLX       0.043200
     87 H41        121.2200   136.1970   145.5820 hc         1 DLX       0.043200
     88 H42        121.1500   139.0200   146.7680 hc         1 DLX       0.044700
     89 H43        121.8490   137.6130   147.5140 hc         1 DLX       0.044700
     90 H44        124.9830   137.8140   145.3800 ha         1 DLX       0.164000
     91 H45        123.2220   135.7860   146.8870 hc         1 DLX       0.042700
     92 H46        124.7000   135.4880   146.0080 hc         1 DLX       0.042700
     93 H47        125.2540   135.3470   148.3370 hc         1 DLX       0.044200
     94 H48        125.9910   136.7970   147.7200 hc         1 DLX       0.044200
     95 H49        123.9740   138.9390   150.1260 ha         1 DLX       0.162000
     96 H50        124.9870   140.3850   148.4900 hc         1 DLX       0.049200
     97 H51        125.6780   139.0630   147.5810 hc         1 DLX       0.049200
     98 H52        126.6250   139.9750   150.3480 hc         1 DLX       0.043700
     99 H53        127.2330   138.5700   149.5020 hc         1 DLX       0.043700
    100 H54        129.0110   138.8300   147.9620 ha         1 DLX       0.164000
    101 H55        130.2000   140.0450   146.2790 hc         1 DLX       0.046700
    102 H56        129.5830   141.5950   146.7770 hc         1 DLX       0.046700
    103 H57        131.6640   139.9240   148.2960 hc         1 DLX       0.045700
    104 H58        131.9830   141.3130   147.2850 hc         1 DLX       0.045700
    105 H59        131.2530   143.5920   148.0130 ha         1 DLX       0.171000
    106 H60        130.6210   145.1670   149.6250 hc         1 DLX       0.070200
    107 H61        130.0550   143.9330   150.7180 hc         1 DLX       0.070200
    108 H62        132.0550   146.7810   154.4620 ha         1 DLX       0.137000
    109 H63        134.0010   147.1750   155.9360 ha         1 DLX       0.121000
    110 H64        136.2100   146.1590   155.3970 ha         1 DLX       0.121000
    111 H65        136.4730   144.7490   153.3810 ha         1 DLX       0.138000
    112 H66        133.5630   143.2570   149.8150 ha         1 DLX       0.212000
    113 C37        119.1820   132.9990   138.3380 c3         1 DLX      -0.071400
@<TRIPOS>BOND
     1     1    32 1   
     2     1    47 1   
     3     1    48 1   
     4     1    49 1   
     5     2    28 1   
     6     2    50 1   
     7     2    51 1   
     8     2    52 1   
     9     3    24 1   
    10     3    53 1   
    11     3    54 1   
    12     3    55 1   
    13     4    20 1   
    14     4    56 1   
    15     4    57 1   
    16     4    58 1   
    17     5    16 1   
    18     5    59 1   
    19     5    60 1   
    20     5    61 1   
    21     6    12 1   
    22     6    62 1   
    23     6    63 1   
    24     6    64 1   
    25     7     9 1   
    26     7    65 1   
    27     7    66 1   
    28     7    67 1   
    29     8     9 1   
    30     8    68 1   
    31     8    69 1   
    32     8    70 1   
    33     9    10 1   
    34     9    71 1   
    35    10    72 1   
    36    10    73 1   
    37    10   113 1   
    38    11    12 1   
    39    11    76 1   
    40    11    77 1   
    41    11   113 1   
    42    12    13 1   
    43    12    78 1   
    44    13    14 1   
    45    13    79 1   
    46    13    80 1   
    47    14    15 1   
    48    14    81 1   
    49    14    82 1   
    50    15    16 1   
    51    15    83 1   
    52    15    84 1   
    53    16    17 2   
    54    17    18 1   
    55    17    85 1   
    56    18    19 1   
    57    18    86 1   
    58    18    87 1   
    59    19    20 1   
    60    19    88 1   
    61    19    89 1   
    62    20    21 2   
    63    21    22 1   
    64    21    90 1   
    65    22    23 1   
    66    22    91 1   
    67    22    92 1   
    68    23    24 1   
    69    23    93 1   
    70    23    94 1   
    71    24    25 2   
    72    25    26 1   
    73    25    95 1   
    74    26    27 1   
    75    26    96 1   
    76    26    97 1   
    77    27    28 1   
    78    27    98 1   
    79    27    99 1   
    80    28    29 2   
    81    29    30 1   
    82    29   100 1   
    83    30    31 1   
    84    30   101 1   
    85    30   102 1   
    86    31    32 1   
    87    31   103 1   
    88    31   104 1   
    89    32    33 2   
    90    33    34 1   
    91    33   105 1   
    92    34    42 1   
    93    34   106 1   
    94    34   107 1   
    95    35    43 2   
    96    36    46 2   
    97    37    38 ar  
    98    37    44 ar  
    99    37   108 1   
   100    38    39 ar  
   101    38   109 1   
   102    39    40 ar  
   103    39   110 1   
   104    40    45 ar  
   105    40   111 1   
   106    41    42 2   
   107    41    46 1   
   108    41   112 1   
   109    42    43 1   
   110    43    44 1   
   111    44    45 ar  
   112    45    46 1   
   113    74   113 1   
   114    75   113 1   
@<TRIPOS>SUBSTRUCTURE
     1 DLX         1 TEMP              0 ****  ****    0 ROOT
