@<TRIPOS>MOLECULE
DLY
   23    22     1     0     0
SMALL
bcc


@<TRIPOS>ATOM
      1 N            1.7090    -0.9390    -0.0470 n8         1 DLY      -0.890800
      2 CA           2.4570     0.1300     0.6020 c3         1 DLY       0.012500
      3 C            2.2530     1.5430    -0.0090 c          1 DLY       0.901600
      4 O            1.2260     1.7280    -0.6930 o          1 DLY      -0.840300
      5 CB           2.1370     0.2000     2.0980 c3         1 DLY      -0.054400
      6 CG           2.3980    -1.0760     2.9050 c3         1 DLY      -0.059400
      7 CD           1.2200    -2.0420     2.9760 c3         1 DLY      -0.116400
      8 CE           1.4960    -3.2880     3.8150 c3         1 DLY       0.141800
      9 NZ           1.7700    -3.0730     5.2300 n8         1 DLY      -0.895800
     10 OXT          3.1270     2.3920     0.2720 o          1 DLY      -0.840300
     11 H            0.7340    -0.6630    -0.0730 hn         1 DLY       0.324800
     12 H2           1.9850    -0.9790    -1.0210 hn         1 DLY       0.324800
     13 HA           3.5210    -0.1210     0.5120 h1         1 DLY       0.036700
     14 HB2          1.0900     0.5040     2.2280 hc         1 DLY       0.039700
     15 HB3          2.7330     1.0140     2.5150 hc         1 DLY       0.039700
     16 HG2          2.6730    -0.7850     3.9230 hc         1 DLY       0.016700
     17 HG3          3.2720    -1.5960     2.4960 hc         1 DLY       0.016700
     18 HD2          0.9440    -2.3460     1.9650 hc         1 DLY       0.049700
     19 HD3          0.3500    -1.5180     3.3890 hc         1 DLY       0.049700
     20 HE2          2.3450    -3.8290     3.3870 h1         1 DLY       0.040200
     21 HE3          0.6400    -3.9630     3.7380 h1         1 DLY       0.040200
     22 HZ1          1.0130    -2.5400     5.6410 hn         1 DLY       0.330800
     23 HZ2          2.5960    -2.4960     5.3360 hn         1 DLY       0.330800
@<TRIPOS>BOND
     1     1     2 1   
     2     1    11 1   
     3     1    12 1   
     4     2     3 1   
     5     2     5 1   
     6     2    13 1   
     7     3     4 1   
     8     3    10 1   
     9     5     6 1   
    10     5    14 1   
    11     5    15 1   
    12     6     7 1   
    13     6    16 1   
    14     6    17 1   
    15     7     8 1   
    16     7    18 1   
    17     7    19 1   
    18     8     9 1   
    19     8    20 1   
    20     8    21 1   
    21     9    22 1   
    22     9    23 1   
@<TRIPOS>SUBSTRUCTURE
     1 DLY         1 TEMP              0 ****  ****    0 ROOT
