@<TRIPOS>MOLECULE
DLY
   23    22     1     0     0
SMALL
No Charge or Current Charge


@<TRIPOS>ATOM
      1 N            1.1680    -0.7420    -0.0430 n8         1 DLY      -0.890800
      2 CA           2.2600     0.0740     0.6130 c3         1 DLY       0.012500
      3 C            2.5820     1.4850    -0.0490 c          1 DLY       0.901600
      4 O            1.6620     2.2790    -0.2270 o          1 DLY      -0.840300
      5 CB           1.9970     0.2430     2.1400 c3         1 DLY      -0.054400
      6 CG           2.3770    -0.9630     3.0420 c3         1 DLY      -0.059400
      7 CD           1.4900    -2.2240     2.8830 c3         1 DLY      -0.116400
      8 CE           1.8420    -3.3750     3.8500 c3         1 DLY       0.141800
      9 NZ           1.5650    -3.0220     5.2540 n8         1 DLY      -0.895800
     10 OXT          3.7160     1.6950    -0.4650 o          1 DLY      -0.840300
     11 H            0.3110    -0.1780    -0.0710 hn         1 DLY       0.324800
     12 H2           1.4030    -0.8850    -1.0310 hn         1 DLY       0.324800
     13 HA           3.1840    -0.5120     0.5130 h1         1 DLY       0.036700
     14 HB2          0.9490     0.5200     2.3110 hc         1 DLY       0.039700
     15 HB3          2.5910     1.0970     2.4900 hc         1 DLY       0.039700
     16 HG2          2.3260    -0.6240     4.0840 hc         1 DLY       0.016700
     17 HG3          3.4240    -1.2330     2.8570 hc         1 DLY       0.016700
     18 HD2          1.5960    -2.6100     1.8630 hc         1 DLY       0.049700
     19 HD3          0.4340    -1.9520     3.0090 hc         1 DLY       0.049700
     20 HE2          2.9060    -3.6330     3.7490 h1         1 DLY       0.040200
     21 HE3          1.2470    -4.2630     3.5910 h1         1 DLY       0.040200
     22 HZ1          0.5790    -2.7540     5.3390 hn         1 DLY       0.330800
     23 HZ2          2.0790    -2.1660     5.4830 hn         1 DLY       0.330800
@<TRIPOS>BOND
     1     1     2 1   
     2     1    11 1   
     3     1    12 1   
     4     2     3 1   
     5     2     5 1   
     6     2    13 1   
     7     3     4 1   
     8     3    10 1   
     9     5     6 1   
    10     5    14 1   
    11     5    15 1   
    12     6     7 1   
    13     6    16 1   
    14     6    17 1   
    15     7     8 1   
    16     7    18 1   
    17     7    19 1   
    18     8     9 1   
    19     8    20 1   
    20     8    21 1   
    21     9    22 1   
    22     9    23 1   
@<TRIPOS>SUBSTRUCTURE
     1 DLY         1 TEMP              0 ****  ****    0 ROOT
