@<TRIPOS>MOLECULE
DLZ
   41    42     1     0     0
SMALL
abcg2


@<TRIPOS>ATOM
      1 C7           0.1320     3.3190    -0.1670 c3         1 DLZ      -0.073800
      2 C7A          1.0850     2.1790    -0.0800 cc         1 DLZ      -0.020300
      3 C5A          2.4010     2.3540     0.3510 cd         1 DLZ       0.239300
      4 C6           2.9260     3.6940     0.7670 c3         1 DLZ      -0.129400
      5 N5           3.2380     1.3240     0.3950 nd         1 DLZ      -0.519000
      6 C4A          2.8200     0.1310     0.0600 cc         1 DLZ       0.182500
      7 C4           3.7590    -1.0000     0.1210 c          1 DLZ       0.490500
      8 O4           4.9210    -0.9040     0.4530 o          1 DLZ      -0.491000
      9 N3           3.1850    -2.1860    -0.2410 ns         1 DLZ      -0.496500
     10 C2           1.8580    -2.3980    -0.6200 c          1 DLZ       0.735400
     11 O2           1.4980    -3.5290    -0.8920 o          1 DLZ      -0.522000
     12 N1           1.0260    -1.3290    -0.6670 nd         1 DLZ      -0.506400
     13 C8           1.5000    -0.1430    -0.3590 cc         1 DLZ       0.110000
     14 N8           0.6720     0.9470    -0.4500 na         1 DLZ       0.030000
     15 C1          -0.6750     0.7370    -1.0000 c3         1 DLZ       0.011600
     16 C10         -1.6950     0.3570     0.0850 c3         1 DLZ       0.146300
     17 O6          -1.2020    -0.6390     0.9420 oh         1 DLZ      -0.718000
     18 C3          -3.0050    -0.0920    -0.5920 c3         1 DLZ       0.094300
     19 O3          -3.3030     0.6650    -1.7440 oh         1 DLZ      -0.712000
     20 C9          -4.2170    -0.0880     0.3640 c3         1 DLZ       0.149300
     21 O1          -3.9070    -0.4320     1.6900 oh         1 DLZ      -0.690000
     22 C5          -5.3190    -0.9660    -0.2080 c3         1 DLZ       0.131600
     23 O5          -6.4920    -0.7790     0.5480 oh         1 DLZ      -0.706000
     24 H7          -0.0510     3.5950    -1.2080 hc         1 DLZ       0.071033
     25 H7A         -0.8280     3.0820     0.2890 hc         1 DLZ       0.071033
     26 H7B          0.5260     4.1930     0.3400 hc         1 DLZ       0.071033
     27 H6           2.4090     4.0710     1.6510 hc         1 DLZ       0.057367
     28 H6A          3.9830     3.6080     1.0070 hc         1 DLZ       0.057367
     29 H6B          2.8150     4.4380    -0.0210 hc         1 DLZ       0.057367
     30 HN3          3.7780    -3.0070    -0.2170 hn         1 DLZ       0.340500
     31 H1          -0.9720     1.6440    -1.5150 h1         1 DLZ       0.092700
     32 H1'A        -0.5890    -0.0480    -1.7500 h1         1 DLZ       0.092700
     33 H2          -1.8870     1.2340     0.7140 h1         1 DLZ       0.074700
     34 HO2         -0.7230    -1.2930     0.4080 ho         1 DLZ       0.544000
     35 H3          -2.8310    -1.1130    -0.9560 h1         1 DLZ       0.086700
     36 HO3         -3.5780     1.5500    -1.4760 ho         1 DLZ       0.502000
     37 H4          -4.5870     0.9450     0.4160 h1         1 DLZ       0.073700
     38 HO4         -3.3980    -1.2490     1.6930 ho         1 DLZ       0.515000
     39 H5          -5.4710    -0.7050    -1.2620 h1         1 DLZ       0.027700
     40 H5'A        -4.9810    -2.0130    -0.1830 h1         1 DLZ       0.027700
     41 HO5         -7.1830    -1.3280     0.1670 ho         1 DLZ       0.505000
@<TRIPOS>BOND
     1     1     2 1   
     2     1    24 1   
     3     1    25 1   
     4     1    26 1   
     5     2     3 2   
     6     2    14 1   
     7     3     4 1   
     8     3     5 1   
     9     4    27 1   
    10     4    28 1   
    11     4    29 1   
    12     5     6 2   
    13     6     7 1   
    14     6    13 1   
    15     7     8 2   
    16     7     9 1   
    17     9    10 1   
    18     9    30 1   
    19    10    11 2   
    20    10    12 1   
    21    12    13 2   
    22    13    14 1   
    23    14    15 1   
    24    15    16 1   
    25    15    31 1   
    26    15    32 1   
    27    16    17 1   
    28    16    18 1   
    29    16    33 1   
    30    17    34 1   
    31    18    19 1   
    32    18    20 1   
    33    18    35 1   
    34    19    36 1   
    35    20    21 1   
    36    20    22 1   
    37    20    37 1   
    38    21    38 1   
    39    22    23 1   
    40    22    39 1   
    41    22    40 1   
    42    23    41 1   
@<TRIPOS>SUBSTRUCTURE
     1 DLZ         1 TEMP              0 ****  ****    0 ROOT
