@<TRIPOS>MOLECULE
DLZ
   41    42     1     0     0
SMALL
No Charge or Current Charge


@<TRIPOS>ATOM
      1 C7           0.0300     3.2510    -0.3140 c3         1 DLZ      -0.073800
      2 C7A          1.0740     2.1500    -0.1770 cc         1 DLZ      -0.020300
      3 C5A          2.4100     2.4380     0.1820 cd         1 DLZ       0.239300
      4 C6           2.9030     3.8460     0.4220 c3         1 DLZ      -0.129400
      5 N5           3.3950     1.4730     0.3670 nd         1 DLZ      -0.519000
      6 C4A          3.0000     0.2220     0.2030 cc         1 DLZ       0.182500
      7 C4           3.9550    -0.9180     0.4300 c          1 DLZ       0.490500
      8 O4           5.1240    -0.7980     0.7720 o          1 DLZ      -0.491000
      9 N3           3.4290    -2.1650     0.2280 ns         1 DLZ      -0.496500
     10 C2           2.1660    -2.4850    -0.1460 c          1 DLZ       0.735400
     11 O2           1.8050    -3.6370    -0.2890 o          1 DLZ      -0.522000
     12 N1           1.2890    -1.4090    -0.3560 nd         1 DLZ      -0.506400
     13 C8           1.6880    -0.1520    -0.1990 cc         1 DLZ       0.110000
     14 N8           0.7090     0.8070    -0.4840 na         1 DLZ       0.030000
     15 C1          -0.6230     0.4610    -1.0760 c3         1 DLZ       0.011600
     16 C10         -1.7080     0.0650    -0.0320 c3         1 DLZ       0.146300
     17 O6          -1.3700    -1.2180     0.5330 oh         1 DLZ      -0.718000
     18 C3          -3.1530     0.0150    -0.6460 c3         1 DLZ       0.094300
     19 O3          -3.4750     1.2970    -1.2330 oh         1 DLZ      -0.712000
     20 C9          -4.2720    -0.4050     0.3750 c3         1 DLZ       0.149300
     21 O1          -3.9250    -1.6730     0.9640 oh         1 DLZ      -0.690000
     22 C5          -5.6890    -0.4910    -0.2800 c3         1 DLZ       0.131600
     23 O5          -6.7150    -0.7380     0.7030 oh         1 DLZ      -0.706000
     24 H7          -0.0810     3.5550    -1.3610 hc         1 DLZ       0.071033
     25 H7A         -0.9520     2.9350     0.0560 hc         1 DLZ       0.071033
     26 H7B          0.2870     4.1460     0.2620 hc         1 DLZ       0.071033
     27 H6           2.4630     4.2640     1.3340 hc         1 DLZ       0.057367
     28 H6A          3.9930     3.8880     0.5360 hc         1 DLZ       0.057367
     29 H6B          2.6420     4.5040    -0.4160 hc         1 DLZ       0.057367
     30 HN3          4.0490    -2.9460     0.3760 hn         1 DLZ       0.340500
     31 H1          -0.9760     1.3140    -1.6650 h1         1 DLZ       0.092700
     32 H1'A        -0.5030    -0.3520    -1.8030 h1         1 DLZ       0.092700
     33 H2          -1.7100     0.8250     0.7620 h1         1 DLZ       0.074700
     34 HO2         -0.4160    -1.3910     0.3060 ho         1 DLZ       0.544000
     35 H3          -3.1380    -0.7450    -1.4410 h1         1 DLZ       0.086700
     36 HO3         -3.6790     1.9320    -0.5070 ho         1 DLZ       0.502000
     37 H4          -4.3110     0.3630     1.1600 h1         1 DLZ       0.073700
     38 HO4         -2.9250    -1.6900     0.9320 ho         1 DLZ       0.515000
     39 H5          -5.9040     0.4500    -0.8020 h1         1 DLZ       0.027700
     40 H5'A        -5.6840    -1.2880    -1.0360 h1         1 DLZ       0.027700
     41 HO5         -7.5600    -0.8720     0.2120 ho         1 DLZ       0.505000
@<TRIPOS>BOND
     1     1     2 1   
     2     1    24 1   
     3     1    25 1   
     4     1    26 1   
     5     2     3 2   
     6     2    14 1   
     7     3     4 1   
     8     3     5 1   
     9     4    27 1   
    10     4    28 1   
    11     4    29 1   
    12     5     6 2   
    13     6     7 1   
    14     6    13 1   
    15     7     8 2   
    16     7     9 1   
    17     9    10 1   
    18     9    30 1   
    19    10    11 2   
    20    10    12 1   
    21    12    13 2   
    22    13    14 1   
    23    14    15 1   
    24    15    16 1   
    25    15    31 1   
    26    15    32 1   
    27    16    17 1   
    28    16    18 1   
    29    16    33 1   
    30    17    34 1   
    31    18    19 1   
    32    18    20 1   
    33    18    35 1   
    34    19    36 1   
    35    20    21 1   
    36    20    22 1   
    37    20    37 1   
    38    21    38 1   
    39    22    23 1   
    40    22    39 1   
    41    22    40 1   
    42    23    41 1   
@<TRIPOS>SUBSTRUCTURE
     1 DLZ         1 TEMP              0 ****  ****    0 ROOT
