@<TRIPOS>MOLECULE
DM0
   35    34     1     0     0
SMALL
No Charge or Current Charge


@<TRIPOS>ATOM
      1 OXT         -8.3730    15.3190    48.5450 o          1 DM0      -0.726500
      2 N           -9.7440    18.2700    49.7410 n3         1 DM0      -0.680600
      3 CA          -8.9210    17.6740    48.6150 c3         1 DM0       0.037500
      4 CB          -8.0400    18.7250    47.8630 c3         1 DM0      -0.047400
      5 CG          -7.2590    18.1580    46.6510 c3         1 DM0      -0.071400
      6 CD          -6.4780    19.2430    45.8770 c3         1 DM0      -0.110400
      7 CE          -5.6970    18.6700    44.6660 c3         1 DM0       0.165800
      8 NZ          -4.9220    19.6600    43.8720 n3         1 DM0      -0.733600
      9 CH1         -3.7950    20.2770    44.6090 c3         1 DM0       0.163100
     10 CH2         -5.7590    20.6540    43.1620 c3         1 DM0       0.163100
     11 C           -8.0400    16.4110    48.9910 c          1 DM0       0.718000
     12 O           -7.0820    16.5520    49.7440 o          1 DM0      -0.726500
     13 HA          -9.6380    17.3070    47.8670 h1         1 DM0       0.006700
     14 HB          -8.6730    19.5360    47.4880 hc         1 DM0       0.022200
     15 HBA         -7.3320    19.1750    48.5700 hc         1 DM0       0.022200
     16 HG          -6.5520    17.3920    46.9900 hc         1 DM0       0.053200
     17 HGA         -7.9630    17.6660    45.9690 hc         1 DM0       0.053200
     18 HD          -7.1840    20.0070    45.5310 hc         1 DM0       0.028700
     19 HDA         -5.7810    19.7350    46.5660 hc         1 DM0       0.028700
     20 HE          -5.0150    17.8920    45.0380 h1         1 DM0       0.050700
     21 HEA         -6.4150    18.1610    44.0080 h1         1 DM0       0.050700
     22 HH1         -3.1660    20.8650    43.9280 h1         1 DM0       0.022367
     23 HH1A        -4.1580    20.9460    45.4000 h1         1 DM0       0.022367
     24 HH1B        -3.1640    19.5050    45.0710 h1         1 DM0       0.022367
     25 HH2         -6.2370    21.3460    43.8680 h1         1 DM0       0.022367
     26 HH2A        -5.1480    21.2450    42.4670 h1         1 DM0       0.022367
     27 HH2B        -6.5450    20.1540    42.5800 h1         1 DM0       0.022367
     28 HM1        -11.1910    16.7070    49.8770 h1         1 DM0       0.012700
     29 HM1A        -9.7850    16.5090    50.9540 h1         1 DM0       0.012700
     30 HM1B       -11.0330    17.7030    51.3440 h1         1 DM0       0.012700
     31 HM2        -11.2590    19.7080    50.1730 h1         1 DM0       0.012700
     32 HM2A       -10.0880    20.2360    48.9620 h1         1 DM0       0.012700
     33 HM2B       -11.3300    19.0300    48.5300 h1         1 DM0       0.012700
     34 CM1        -10.4760    17.2420    50.5170 c3         1 DM0       0.160600
     35 CM2        -10.6510    19.3660    49.3250 c3         1 DM0       0.160600
@<TRIPOS>BOND
     1     1    11 1   
     2     2     3 1   
     3     2    34 1   
     4     2    35 1   
     5     3     4 1   
     6     3    11 1   
     7     3    13 1   
     8     4     5 1   
     9     4    14 1   
    10     4    15 1   
    11     5     6 1   
    12     5    16 1   
    13     5    17 1   
    14     6     7 1   
    15     6    18 1   
    16     6    19 1   
    17     7     8 1   
    18     7    20 1   
    19     7    21 1   
    20     8     9 1   
    21     8    10 1   
    22     9    22 1   
    23     9    23 1   
    24     9    24 1   
    25    10    25 1   
    26    10    26 1   
    27    10    27 1   
    28    11    12 1   
    29    28    34 1   
    30    29    34 1   
    31    30    34 1   
    32    31    35 1   
    33    32    35 1   
    34    33    35 1   
@<TRIPOS>SUBSTRUCTURE
     1 DM0         1 TEMP              0 ****  ****    0 ROOT
