@<TRIPOS>MOLECULE
DM0
   35    34     1     0     0
SMALL
abcg2


@<TRIPOS>ATOM
      1 OXT         -8.1460    15.4380    48.4010 o          1 DM0      -0.726500
      2 N           -9.6560    18.2340    49.7040 n3         1 DM0      -0.680600
      3 CA          -8.9380    17.6840    48.5560 c3         1 DM0       0.037500
      4 CB          -8.1030    18.7480    47.8380 c3         1 DM0      -0.047400
      5 CG          -7.2730    18.1970    46.6840 c3         1 DM0      -0.071400
      6 CD          -6.5560    19.2880    45.8970 c3         1 DM0      -0.110400
      7 CE          -5.7620    18.6950    44.7310 c3         1 DM0       0.165800
      8 NZ          -4.9710    19.6040    43.9240 n3         1 DM0      -0.733600
      9 CH1         -3.8570    20.1910    44.6300 c3         1 DM0       0.163100
     10 CH2         -5.7570    20.5980    43.2300 c3         1 DM0       0.163100
     11 C           -7.9990    16.5260    48.9920 c          1 DM0       0.718000
     12 O           -7.1550    16.7930    49.8710 o          1 DM0      -0.726500
     13 HA          -9.6610    17.2740    47.8260 h1         1 DM0       0.006700
     14 HB          -8.7510    19.5300    47.4340 hc         1 DM0       0.022200
     15 HBA         -7.4470    19.2330    48.5670 hc         1 DM0       0.022200
     16 HG          -6.5280    17.4890    47.0570 hc         1 DM0       0.053200
     17 HGA         -7.9210    17.6310    46.0050 hc         1 DM0       0.053200
     18 HD          -7.2900    20.0100    45.5240 hc         1 DM0       0.028700
     19 HDA         -5.8910    19.8400    46.5690 hc         1 DM0       0.028700
     20 HE          -5.0860    17.9270    45.1240 h1         1 DM0       0.050700
     21 HEA         -6.4590    18.1760    44.0650 h1         1 DM0       0.050700
     22 HH1         -3.2090    20.7170    43.9260 h1         1 DM0       0.022367
     23 HH1A        -4.1410    20.9130    45.4110 h1         1 DM0       0.022367
     24 HH1B        -3.2610    19.4100    45.1050 h1         1 DM0       0.022367
     25 HH2         -6.2030    21.3610    43.8860 h1         1 DM0       0.022367
     26 HH2A        -5.1320    21.1210    42.5030 h1         1 DM0       0.022367
     27 HH2B        -6.5690    20.1170    42.6820 h1         1 DM0       0.022367
     28 HM1        -11.1910    16.7460    49.7160 h1         1 DM0       0.012700
     29 HM1A        -9.7920    16.4140    50.7500 h1         1 DM0       0.012700
     30 HM1B       -10.9560    17.6370    51.2250 h1         1 DM0       0.012700
     31 HM2        -11.0830    19.6570    50.2300 h1         1 DM0       0.012700
     32 HM2A        -9.9460    20.2030    49.0140 h1         1 DM0       0.012700
     33 HM2B       -11.2490    19.0930    48.5620 h1         1 DM0       0.012700
     34 CM1        -10.4330    17.2080    50.3690 c3         1 DM0       0.160600
     35 CM2        -10.5190    19.3410    49.3510 c3         1 DM0       0.160600
@<TRIPOS>BOND
     1     1    11 1   
     2     2     3 1   
     3     2    34 1   
     4     2    35 1   
     5     3     4 1   
     6     3    11 1   
     7     3    13 1   
     8     4     5 1   
     9     4    14 1   
    10     4    15 1   
    11     5     6 1   
    12     5    16 1   
    13     5    17 1   
    14     6     7 1   
    15     6    18 1   
    16     6    19 1   
    17     7     8 1   
    18     7    20 1   
    19     7    21 1   
    20     8     9 1   
    21     8    10 1   
    22     9    22 1   
    23     9    23 1   
    24     9    24 1   
    25    10    25 1   
    26    10    26 1   
    27    10    27 1   
    28    11    12 1   
    29    28    34 1   
    30    29    34 1   
    31    30    34 1   
    32    31    35 1   
    33    32    35 1   
    34    33    35 1   
@<TRIPOS>SUBSTRUCTURE
     1 DM0         1 TEMP              0 ****  ****    0 ROOT
