@<TRIPOS>MOLECULE
DM1
   67    71     1     0     0
SMALL
No Charge or Current Charge


@<TRIPOS>ATOM
      1 C1          14.9150    18.3910     4.4410 ca         1 DM1      -0.104000
      2 C2          16.0250    19.1840     4.7520 ca         1 DM1      -0.063000
      3 C3          17.2600    18.5820     5.0240 ca         1 DM1      -0.193000
      4 C4          17.3990    17.1770     4.9710 ca         1 DM1       0.186100
      5 O4          18.6090    16.5750     5.2670 os         1 DM1      -0.310100
      6 C5          16.2790    16.3690     4.6380 ca         1 DM1      -0.161600
      7 C6          16.3990    14.8660     4.5090 c          1 DM1       0.597300
      8 O6          17.4670    14.3410     4.2170 o          1 DM1      -0.468100
      9 C7          15.1170    14.0520     4.6090 ca         1 DM1      -0.130600
     10 C8          15.1480    12.6710     4.9260 ca         1 DM1       0.159100
     11 O8          16.3120    12.0640     5.2920 oh         1 DM1      -0.520100
     12 C9          13.9690    11.8930     4.9470 ca         1 DM1      -0.098300
     13 C10         14.0680    10.3650     5.1950 c6         1 DM1       0.233600
     14 O10         14.8050    10.1510     6.4300 os         1 DM1      -0.498000
     15 C11         12.7000     9.6240     5.1360 c6         1 DM1      -0.088400
     16 C12         11.5020    10.4460     5.6900 c6         1 DM1       0.086000
     17 O12         11.7460    10.8490     7.0580 oh         1 DM1      -0.638000
     18 C13         10.1620     9.6110     5.6250 c          1 DM1       0.546100
     19 O13          9.4540     9.5010     6.6220 o          1 DM1      -0.509100
     20 C14          9.7630     8.9120     4.3180 c3         1 DM1      -0.194100
     21 C15         11.4140    11.7050     4.7820 c6         1 DM1      -0.054100
     22 C16         12.7220    12.5190     4.7110 ca         1 DM1      -0.062300
     23 C17         12.6780    13.8980     4.4080 ca         1 DM1       0.185100
     24 O17         11.4710    14.4850     4.1510 oh         1 DM1      -0.549100
     25 C18         13.8620    14.6730     4.3610 ca         1 DM1      -0.233600
     26 C19         13.8030    16.1580     4.0840 c          1 DM1       0.612300
     27 O19         12.7820    16.6770     3.6410 o          1 DM1      -0.567100
     28 C20         15.0260    16.9850     4.3900 ca         1 DM1      -0.100600
     29 C21         19.7890    17.3200     5.6150 c3         1 DM1       0.146900
     30 C22         15.3440     8.8280     6.6520 c6         1 DM1       0.384300
     31 C23         16.6390     8.9160     7.4960 c6         1 DM1      -0.096400
     32 C24         16.3460     9.3550     8.9570 c6         1 DM1       0.171500
     33 N3          17.5960     9.3180     9.7560 n8         1 DM1      -0.980200
     34 C25         15.2250     8.4630     9.5940 c6         1 DM1       0.149300
     35 O2          15.7010     7.1100     9.7690 oh         1 DM1      -0.689000
     36 C26         13.9910     8.5020     8.6450 c6         1 DM1       0.131300
     37 O5          14.3700     8.0100     7.3390 os         1 DM1      -0.466000
     38 C27         12.8000     7.6370     9.1300 c3         1 DM1      -0.093100
     39 H1          13.9600    18.8770     4.2480 ha         1 DM1       0.140000
     40 H2          15.9260    20.2670     4.7930 ha         1 DM1       0.119000
     41 H3          18.0970    19.2260     5.2750 ha         1 DM1       0.122000
     42 HO8         16.0410    11.2710     5.8130 ho         1 DM1       0.481000
     43 H10         14.6850     9.9560     4.3810 h1         1 DM1       0.049700
     44 H111        12.5130     9.3860     4.0800 hc         1 DM1       0.073700
     45 H112        12.7480     8.6500     5.6340 hc         1 DM1       0.073700
     46 HO12        10.9390    10.5990     7.5640 ho         1 DM1       0.446000
     47 H141         8.7480     8.4990     4.3620 hc         1 DM1       0.064033
     48 H142         9.8960     9.5800     3.4620 hc         1 DM1       0.064033
     49 H143        10.4830     8.1120     4.1160 hc         1 DM1       0.064033
     50 H151        11.1310    11.4320     3.7580 hc         1 DM1       0.080200
     51 H152        10.5940    12.3330     5.1570 hc         1 DM1       0.080200
     52 HO17        11.6640    15.4220     3.8870 ho         1 DM1       0.517000
     53 H211        20.6270    16.6370     5.8030 h1         1 DM1       0.045367
     54 H212        20.0790    17.9960     4.8000 h1         1 DM1       0.045367
     55 H213        19.6240    17.9130     6.5240 h1         1 DM1       0.045367
     56 H7          15.5930     8.3650     5.6850 h2         1 DM1       0.071700
     57 H2'1        17.1350     7.9370     7.4850 hc         1 DM1       0.074700
     58 H2'2        17.3390     9.6180     7.0260 hc         1 DM1       0.074700
     59 H8          16.0010    10.4010     8.9400 h1         1 DM1       0.034700
     60 HN'1        17.7350     8.3380    10.0310 hn         1 DM1       0.394000
     61 HN'2        17.4220     9.7820    10.6540 hn         1 DM1       0.394000
     62 H4          14.9410     8.8890    10.5670 h1         1 DM1       0.029700
     63 HO4         15.5000     6.6520     8.9210 ho         1 DM1       0.498000
     64 H5          13.6360     9.5390     8.5560 h1         1 DM1       0.061700
     65 H6'1        11.9430     7.7420     8.4540 hc         1 DM1       0.044367
     66 H6'2        13.0590     6.5730     9.1760 hc         1 DM1       0.044367
     67 H6'3        12.4720     7.9470    10.1290 hc         1 DM1       0.044367
@<TRIPOS>BOND
     1     1     2 ar  
     2     1    28 ar  
     3     1    39 1   
     4     2     3 ar  
     5     2    40 1   
     6     3     4 ar  
     7     3    41 1   
     8     4     5 1   
     9     4     6 ar  
    10     5    29 1   
    11     6     7 1   
    12     6    28 ar  
    13     7     8 2   
    14     7     9 1   
    15     9    10 ar  
    16     9    25 ar  
    17    10    11 1   
    18    10    12 ar  
    19    11    42 1   
    20    12    13 1   
    21    12    22 ar  
    22    13    14 1   
    23    13    15 1   
    24    13    43 1   
    25    14    30 1   
    26    15    16 1   
    27    15    44 1   
    28    15    45 1   
    29    16    17 1   
    30    16    18 1   
    31    16    21 1   
    32    17    46 1   
    33    18    19 2   
    34    18    20 1   
    35    20    47 1   
    36    20    48 1   
    37    20    49 1   
    38    21    22 1   
    39    21    50 1   
    40    21    51 1   
    41    22    23 ar  
    42    23    24 1   
    43    23    25 ar  
    44    24    52 1   
    45    25    26 1   
    46    26    27 2   
    47    26    28 1   
    48    29    53 1   
    49    29    54 1   
    50    29    55 1   
    51    30    31 1   
    52    30    37 1   
    53    30    56 1   
    54    31    32 1   
    55    31    57 1   
    56    31    58 1   
    57    32    33 1   
    58    32    34 1   
    59    32    59 1   
    60    33    60 1   
    61    33    61 1   
    62    34    35 1   
    63    34    36 1   
    64    34    62 1   
    65    35    63 1   
    66    36    37 1   
    67    36    38 1   
    68    36    64 1   
    69    38    65 1   
    70    38    66 1   
    71    38    67 1   
@<TRIPOS>SUBSTRUCTURE
     1 DM1         1 TEMP              0 ****  ****    0 ROOT
