@<TRIPOS>MOLECULE
DM1
   67    71     1     0     0
SMALL
bcc


@<TRIPOS>ATOM
      1 C1          14.9530    18.4410     4.5450 ca         1 DM1      -0.122000
      2 C2          16.0840    19.1990     4.7820 ca         1 DM1      -0.081000
      3 C3          17.3140    18.5950     4.9770 ca         1 DM1      -0.211000
      4 C4          17.4430    17.2060     4.9150 ca         1 DM1       0.186100
      5 O4          18.6020    16.5810     5.1160 os         1 DM1      -0.286900
      6 C5          16.3000    16.4180     4.6600 ca         1 DM1      -0.161600
      7 C6          16.3890    14.9450     4.4880 c          1 DM1       0.597300
      8 O6          17.4320    14.4040     4.1900 o          1 DM1      -0.468100
      9 C7          15.1370    14.1720     4.6580 ca         1 DM1      -0.130600
     10 C8          15.1610    12.8090     4.9140 ca         1 DM1       0.159100
     11 O8          16.3290    12.1760     5.0940 oh         1 DM1      -0.481100
     12 C9          13.9510    12.0720     4.9860 ca         1 DM1      -0.098300
     13 C10         14.0490    10.5670     5.1370 c6         1 DM1       0.210400
     14 O10         14.7660    10.3110     6.3420 os         1 DM1      -0.451600
     15 C11         12.6960     9.8690     5.0300 c6         1 DM1      -0.088400
     16 C12         11.5670    10.6550     5.6900 c6         1 DM1       0.062800
     17 O12         11.9130    10.8440     7.0380 oh         1 DM1      -0.575800
     18 C13         10.2910     9.8100     5.5450 c          1 DM1       0.546100
     19 O13          9.6480     9.8390     4.5220 o          1 DM1      -0.509100
     20 C14          9.9210     8.9290     6.7040 c3         1 DM1      -0.194100
     21 C15         11.4230    11.9840     4.9620 c6         1 DM1      -0.054100
     22 C16         12.7330    12.7090     4.8520 ca         1 DM1      -0.062300
     23 C17         12.7030    14.0930     4.5820 ca         1 DM1       0.185100
     24 O17         11.5080    14.6520     4.4140 oh         1 DM1      -0.510100
     25 C18         13.8920    14.8200     4.5040 ca         1 DM1      -0.233600
     26 C19         13.8310    16.2640     4.3160 c          1 DM1       0.612300
     27 O19         12.7670    16.8330     4.0770 o          1 DM1      -0.567100
     28 C20         15.0650    17.0570     4.5000 ca         1 DM1      -0.100600
     29 C21         19.7570    17.3410     5.4250 c3         1 DM1       0.123700
     30 C22         15.5140     9.1070     6.4080 c6         1 DM1       0.337900
     31 C23         16.5110     9.2480     7.5480 c6         1 DM1      -0.096400
     32 C24         15.8280     9.1450     8.9060 c6         1 DM1       0.171500
     33 N3          16.8180     9.2230     9.9670 n8         1 DM1      -0.869800
     34 C25         15.0370     7.8400     8.9680 c6         1 DM1       0.126100
     35 O2          15.9360     6.7580     8.9300 oh         1 DM1      -0.566800
     36 C26         14.0440     7.8280     7.8030 c6         1 DM1       0.108100
     37 O5          14.7130     7.9790     6.5530 os         1 DM1      -0.419600
     38 C27         13.2360     6.5500     7.7150 c3         1 DM1      -0.093100
     39 H1          13.9930    18.9160     4.4080 ha         1 DM1       0.158000
     40 H2          16.0140    20.2780     4.8260 ha         1 DM1       0.137000
     41 H3          18.1730    19.2200     5.1760 ha         1 DM1       0.140000
     42 HO8         16.1640    11.4210     5.6780 ho         1 DM1       0.442000
     43 H10         14.6530    10.1990     4.2930 h1         1 DM1       0.049700
     44 H111        12.4590     9.7600     3.9690 hc         1 DM1       0.073700
     45 H112        12.7750     8.8600     5.4330 hc         1 DM1       0.073700
     46 HO12        11.2900    11.4570     7.4450 ho         1 DM1       0.407000
     47 H141         9.1380     8.2310     6.4170 hc         1 DM1       0.064033
     48 H142        10.7830     8.3760     7.0780 hc         1 DM1       0.064033
     49 H143         9.5570     9.5370     7.5360 hc         1 DM1       0.064033
     50 H151        11.0130    11.8190     3.9630 hc         1 DM1       0.080200
     51 H152        10.6950    12.6140     5.4820 hc         1 DM1       0.080200
     52 HO17        11.6520    15.6080     4.2210 ho         1 DM1       0.478000
     53 H211        20.5620    16.6240     5.5580 h1         1 DM1       0.045367
     54 H212        20.0230    18.0250     4.6170 h1         1 DM1       0.045367
     55 H213        19.6360    17.9100     6.3500 h1         1 DM1       0.045367
     56 H7          16.0380     8.9610     5.4540 h2         1 DM1       0.071700
     57 H2'1        17.2560     8.4570     7.4500 hc         1 DM1       0.074700
     58 H2'2        17.0530    10.1940     7.4620 hc         1 DM1       0.074700
     59 H8          15.0800     9.9500     8.9800 h1         1 DM1       0.034700
     60 HN'1        16.3520     9.1780    10.8650 hn         1 DM1       0.338800
     61 HN'2        17.2580    10.1360     9.9370 hn         1 DM1       0.338800
     62 H4          14.4470     7.8320     9.8970 h1         1 DM1       0.029700
     63 HO4         15.4540     5.9500     9.1290 ho         1 DM1       0.399000
     64 H5          13.3500     8.6640     7.9590 h1         1 DM1       0.061700
     65 H6'1        12.4950     6.6150     6.9170 hc         1 DM1       0.044367
     66 H6'2        13.8630     5.6800     7.5140 hc         1 DM1       0.044367
     67 H6'3        12.7020     6.3780     8.6500 hc         1 DM1       0.044367
@<TRIPOS>BOND
     1     1     2 ar  
     2     1    28 ar  
     3     1    39 1   
     4     2     3 ar  
     5     2    40 1   
     6     3     4 ar  
     7     3    41 1   
     8     4     5 1   
     9     4     6 ar  
    10     5    29 1   
    11     6     7 1   
    12     6    28 ar  
    13     7     8 2   
    14     7     9 1   
    15     9    10 ar  
    16     9    25 ar  
    17    10    11 1   
    18    10    12 ar  
    19    11    42 1   
    20    12    13 1   
    21    12    22 ar  
    22    13    14 1   
    23    13    15 1   
    24    13    43 1   
    25    14    30 1   
    26    15    16 1   
    27    15    44 1   
    28    15    45 1   
    29    16    17 1   
    30    16    18 1   
    31    16    21 1   
    32    17    46 1   
    33    18    19 2   
    34    18    20 1   
    35    20    47 1   
    36    20    48 1   
    37    20    49 1   
    38    21    22 1   
    39    21    50 1   
    40    21    51 1   
    41    22    23 ar  
    42    23    24 1   
    43    23    25 ar  
    44    24    52 1   
    45    25    26 1   
    46    26    27 2   
    47    26    28 1   
    48    29    53 1   
    49    29    54 1   
    50    29    55 1   
    51    30    31 1   
    52    30    37 1   
    53    30    56 1   
    54    31    32 1   
    55    31    57 1   
    56    31    58 1   
    57    32    33 1   
    58    32    34 1   
    59    32    59 1   
    60    33    60 1   
    61    33    61 1   
    62    34    35 1   
    63    34    36 1   
    64    34    62 1   
    65    35    63 1   
    66    36    37 1   
    67    36    38 1   
    68    36    64 1   
    69    38    65 1   
    70    38    66 1   
    71    38    67 1   
@<TRIPOS>SUBSTRUCTURE
     1 DM1         1 TEMP              0 ****  ****    0 ROOT
