@<TRIPOS>MOLECULE
DM3
   66    70     1     0     0
SMALL
bcc


@<TRIPOS>ATOM
      1 C1           8.7020    21.2180    33.9330 ca         1 DM3      -0.129000
      2 C2           7.4100    20.7710    33.7290 ca         1 DM3      -0.077000
      3 C3           7.1630    19.4360    33.4700 ca         1 DM3      -0.218000
      4 C4           8.2100    18.5120    33.4030 ca         1 DM3       0.188100
      5 O4           7.9910    17.2210    33.1590 os         1 DM3      -0.283900
      6 C5           9.5410    18.9530    33.6010 ca         1 DM3      -0.164600
      7 C6          10.6910    18.0070    33.5280 c          1 DM3       0.597300
      8 O6          10.5210    16.8370    33.2610 o          1 DM3      -0.475100
      9 C7          12.0490    18.5340    33.8180 ca         1 DM3      -0.176600
     10 C8          13.1820    17.7010    33.7960 ca         1 DM3       0.209100
     11 O8          13.0690    16.4320    33.4000 oh         1 DM3      -0.473100
     12 C9          14.4430    18.1800    34.2120 ca         1 DM3      -0.162300
     13 C10         15.5780    17.1890    34.3660 c6         1 DM3       0.215400
     14 O10         15.7910    16.5780    33.0930 os         1 DM3      -0.452600
     15 C11         16.8190    17.8170    34.9930 c6         1 DM3      -0.087400
     16 C12         17.0860    19.2410    34.5080 c6         1 DM3       0.064800
     17 O12         17.1910    19.2070    33.1080 oh         1 DM3      -0.571800
     18 C13         18.3980    19.6930    35.1630 c          1 DM3       0.546100
     19 O13         18.4040    20.1350    36.2880 o          1 DM3      -0.510100
     20 C14         19.6570    19.5180    34.3620 c3         1 DM3      -0.195100
     21 C15         15.9140    20.1040    34.9530 c6         1 DM3      -0.065100
     22 C16         14.5970    19.5250    34.5250 ca         1 DM3      -0.009300
     23 C17         13.4950    20.3710    34.4630 ca         1 DM3      -0.134000
     24 C18         12.2440    19.8840    34.1440 ca         1 DM3      -0.094600
     25 C19         11.1150    20.8390    34.1200 c          1 DM3       0.589300
     26 O19         11.2990    22.0250    34.3040 o          1 DM3      -0.515100
     27 C20          9.7520    20.3130    33.8730 ca         1 DM3      -0.101600
     28 C21          6.6660    16.7590    32.9700 c3         1 DM3       0.123700
     29 C22         16.3170    15.2600    33.0880 c6         1 DM3       0.337900
     30 C23         16.1220    14.6920    31.6910 c6         1 DM3      -0.096400
     31 C24         17.1080    15.2860    30.6920 c6         1 DM3       0.172500
     32 N3          16.9450    14.6440    29.3980 n8         1 DM3      -0.869800
     33 C25         18.5310    15.1220    31.2210 c6         1 DM3       0.127100
     34 O2          18.8600    13.7550    31.2450 oh         1 DM3      -0.565800
     35 C26         18.6090    15.7690    32.6060 c6         1 DM3       0.108100
     36 O5          17.6450    15.2050    33.4920 os         1 DM3      -0.420600
     37 C27         19.9600    15.6070    33.2730 c3         1 DM3      -0.094100
     38 H1           8.8940    22.2610    34.1410 ha         1 DM3       0.158000
     39 H2           6.5800    21.4630    33.7750 ha         1 DM3       0.136000
     40 H3           6.1410    19.1200    33.3190 ha         1 DM3       0.139000
     41 HO8         13.9470    16.1260    33.1210 ho         1 DM3       0.447000
     42 H10         15.2420    16.4070    35.0650 h1         1 DM3       0.045700
     43 H111        16.6610    17.8560    36.0740 hc         1 DM3       0.072200
     44 H112        17.6780    17.1680    34.8350 hc         1 DM3       0.072200
     45 HO12        17.2190    20.1100    32.7700 ho         1 DM3       0.406000
     46 H141        20.5310    19.6470    34.9960 hc         1 DM3       0.065033
     47 H142        19.6950    18.5410    33.8810 hc         1 DM3       0.065033
     48 H143        19.6970    20.2590    33.5620 hc         1 DM3       0.065033
     49 H151        15.9210    20.2050    36.0410 hc         1 DM3       0.073700
     50 H152        16.0090    21.1200    34.5570 hc         1 DM3       0.073700
     51 H17         13.6200    21.4220    34.6900 ha         1 DM3       0.156000
     52 H211         6.7440    15.6890    32.7980 h1         1 DM3       0.044700
     53 H212         6.0420    16.9300    33.8510 h1         1 DM3       0.044700
     54 H213         6.1910    17.2210    32.1020 h1         1 DM3       0.044700
     55 H7          15.7720    14.6570    33.8260 h2         1 DM3       0.069700
     56 H2'1        16.2610    13.6100    31.7400 hc         1 DM3       0.074700
     57 H2'2        15.0930    14.8580    31.3580 hc         1 DM3       0.074700
     58 H8          16.9340    16.3720    30.6390 h1         1 DM3       0.034700
     59 HN'1        17.5860    15.0620    28.7320 hn         1 DM3       0.338800
     60 HN'2        16.0180    14.8510    29.0440 hn         1 DM3       0.338800
     61 H4          19.2150    15.6810    30.5640 h1         1 DM3       0.028700
     62 HO4         19.8040    13.6670    31.4070 ho         1 DM3       0.399000
     63 H5          18.4150    16.8410    32.4750 h1         1 DM3       0.060700
     64 H6'1        19.9880    16.1420    34.2220 hc         1 DM3       0.044700
     65 H6'2        20.1940    14.5610    33.4750 hc         1 DM3       0.044700
     66 H6'3        20.7450    16.0200    32.6380 hc         1 DM3       0.044700
@<TRIPOS>BOND
     1     1     2 ar  
     2     1    27 ar  
     3     1    38 1   
     4     2     3 ar  
     5     2    39 1   
     6     3     4 ar  
     7     3    40 1   
     8     4     5 1   
     9     4     6 ar  
    10     5    28 1   
    11     6     7 1   
    12     6    27 ar  
    13     7     8 2   
    14     7     9 1   
    15     9    10 ar  
    16     9    24 ar  
    17    10    11 1   
    18    10    12 ar  
    19    11    41 1   
    20    12    13 1   
    21    12    22 ar  
    22    13    14 1   
    23    13    15 1   
    24    13    42 1   
    25    14    29 1   
    26    15    16 1   
    27    15    43 1   
    28    15    44 1   
    29    16    17 1   
    30    16    18 1   
    31    16    21 1   
    32    17    45 1   
    33    18    19 2   
    34    18    20 1   
    35    20    46 1   
    36    20    47 1   
    37    20    48 1   
    38    21    22 1   
    39    21    49 1   
    40    21    50 1   
    41    22    23 ar  
    42    23    24 ar  
    43    23    51 1   
    44    24    25 1   
    45    25    26 2   
    46    25    27 1   
    47    28    52 1   
    48    28    53 1   
    49    28    54 1   
    50    29    30 1   
    51    29    36 1   
    52    29    55 1   
    53    30    31 1   
    54    30    56 1   
    55    30    57 1   
    56    31    32 1   
    57    31    33 1   
    58    31    58 1   
    59    32    59 1   
    60    32    60 1   
    61    33    34 1   
    62    33    35 1   
    63    33    61 1   
    64    34    62 1   
    65    35    36 1   
    66    35    37 1   
    67    35    63 1   
    68    37    64 1   
    69    37    65 1   
    70    37    66 1   
@<TRIPOS>SUBSTRUCTURE
     1 DM3         1 TEMP              0 ****  ****    0 ROOT
