@<TRIPOS>MOLECULE
DM3
   66    70     1     0     0
SMALL
No Charge or Current Charge


@<TRIPOS>ATOM
      1 C1           8.7190    21.1500    34.2100 ca         1 DM3      -0.111000
      2 C2           7.4250    20.6480    34.0330 ca         1 DM3      -0.059000
      3 C3           7.2410    19.3360    33.5830 ca         1 DM3      -0.200000
      4 C4           8.3530    18.5150    33.2890 ca         1 DM3       0.188100
      5 O4           8.1720    17.2080    32.8740 os         1 DM3      -0.307100
      6 C5           9.6690    19.0250    33.4480 ca         1 DM3      -0.164600
      7 C6          10.8860    18.1950    33.0850 c          1 DM3       0.597300
      8 O6          10.8120    17.2930    32.2590 o          1 DM3      -0.475100
      9 C7          12.2200    18.6130    33.6790 ca         1 DM3      -0.176600
     10 C8          13.3240    17.7240    33.7430 ca         1 DM3       0.209100
     11 O8          13.2260    16.4440    33.2950 oh         1 DM3      -0.512100
     12 C9          14.5720    18.1370    34.2620 ca         1 DM3      -0.162300
     13 C10         15.7310    17.1200    34.3960 c6         1 DM3       0.238600
     14 O10         15.9140    16.4780    33.1060 os         1 DM3      -0.499000
     15 C11         17.0370    17.7240    35.0010 c6         1 DM3      -0.087400
     16 C12         17.3020    19.2100    34.6190 c6         1 DM3       0.088000
     17 O12         17.3670    19.3660    33.1820 oh         1 DM3      -0.634000
     18 C13         18.6500    19.7290    35.2590 c          1 DM3       0.546100
     19 O13         19.4950    20.2770    34.5590 o          1 DM3      -0.510100
     20 C14         18.9130    19.5170    36.7570 c3         1 DM3      -0.195100
     21 C15         16.0830    20.0000    35.1770 c6         1 DM3      -0.065100
     22 C16         14.7360    19.4780    34.6680 ca         1 DM3      -0.009300
     23 C17         13.6440    20.3570    34.6230 ca         1 DM3      -0.116000
     24 C18         12.3830    19.9370    34.1530 ca         1 DM3      -0.094600
     25 C19         11.2290    20.9100    34.1620 c          1 DM3       0.589300
     26 O19         11.4040    22.1080    34.3640 o          1 DM3      -0.515100
     27 C20          9.8470    20.3490    33.9300 ca         1 DM3      -0.101600
     28 C21          6.8740    16.6160    32.6910 c3         1 DM3       0.146900
     29 C22         16.6720    15.2470    33.0870 c6         1 DM3       0.384300
     30 C23         16.1780    14.3380    31.9350 c6         1 DM3      -0.096400
     31 C24         16.5400    14.9240    30.5430 c6         1 DM3       0.172500
     32 N3          16.1480    13.9710    29.4760 n8         1 DM3      -0.980200
     33 C25         18.0650    15.2820    30.4680 c6         1 DM3       0.150300
     34 O2          18.8650    14.0800    30.5120 oh         1 DM3      -0.688000
     35 C26         18.3940    16.2160    31.6710 c6         1 DM3       0.131300
     36 O5          18.0760    15.5380    32.9080 os         1 DM3      -0.467000
     37 C27         19.8840    16.6340    31.7500 c3         1 DM3      -0.094100
     38 H1           8.8430    22.1680    34.5750 ha         1 DM3       0.140000
     39 H2           6.5640    21.2750    34.2570 ha         1 DM3       0.118000
     40 H3           6.2230    18.9740    33.4720 ha         1 DM3       0.121000
     41 HO8         14.1520    16.1770    33.0870 ho         1 DM3       0.486000
     42 H10         15.3880    16.3410    35.0950 h1         1 DM3       0.045700
     43 H111        16.9430    17.6480    36.0920 hc         1 DM3       0.072200
     44 H112        17.9130    17.1140    34.7570 hc         1 DM3       0.072200
     45 HO12        18.1920    19.8710    33.0000 ho         1 DM3       0.445000
     46 H141        19.8030    20.0560    37.1010 hc         1 DM3       0.065033
     47 H142        18.0280    19.7700    37.3480 hc         1 DM3       0.065033
     48 H143        19.0300    18.4440    36.9430 hc         1 DM3       0.065033
     49 H151        16.0650    19.9680    36.2740 hc         1 DM3       0.073700
     50 H152        16.1930    21.0610    34.9120 hc         1 DM3       0.073700
     51 H17         13.7790    21.3810    34.9680 ha         1 DM3       0.138000
     52 H211         6.9760    15.5760    32.3540 h1         1 DM3       0.044700
     53 H212         6.3100    16.6130    33.6320 h1         1 DM3       0.044700
     54 H213         6.2990    17.1620    31.9330 h1         1 DM3       0.044700
     55 H7          16.5270    14.7100    34.0370 h2         1 DM3       0.069700
     56 H2'1        16.6210    13.3410    32.0560 hc         1 DM3       0.074700
     57 H2'2        15.0920    14.2000    32.0140 hc         1 DM3       0.074700
     58 H8          15.9510    15.8420    30.3910 h1         1 DM3       0.034700
     59 HN'1        16.8960    13.2690    29.4240 hn         1 DM3       0.394000
     60 HN'2        16.2220    14.4470    28.5700 hn         1 DM3       0.394000
     61 H4          18.2570    15.8250    29.5310 h1         1 DM3       0.028700
     62 HO4         19.0140    13.9030    31.4680 ho         1 DM3       0.498000
     63 H5          17.7930    17.1330    31.5910 h1         1 DM3       0.060700
     64 H6'1        20.0480    17.3300    32.5810 hc         1 DM3       0.044700
     65 H6'2        20.5440    15.7720    31.9010 hc         1 DM3       0.044700
     66 H6'3        20.1970    17.1410    30.8290 hc         1 DM3       0.044700
@<TRIPOS>BOND
     1     1     2 ar  
     2     1    27 ar  
     3     1    38 1   
     4     2     3 ar  
     5     2    39 1   
     6     3     4 ar  
     7     3    40 1   
     8     4     5 1   
     9     4     6 ar  
    10     5    28 1   
    11     6     7 1   
    12     6    27 ar  
    13     7     8 2   
    14     7     9 1   
    15     9    10 ar  
    16     9    24 ar  
    17    10    11 1   
    18    10    12 ar  
    19    11    41 1   
    20    12    13 1   
    21    12    22 ar  
    22    13    14 1   
    23    13    15 1   
    24    13    42 1   
    25    14    29 1   
    26    15    16 1   
    27    15    43 1   
    28    15    44 1   
    29    16    17 1   
    30    16    18 1   
    31    16    21 1   
    32    17    45 1   
    33    18    19 2   
    34    18    20 1   
    35    20    46 1   
    36    20    47 1   
    37    20    48 1   
    38    21    22 1   
    39    21    49 1   
    40    21    50 1   
    41    22    23 ar  
    42    23    24 ar  
    43    23    51 1   
    44    24    25 1   
    45    25    26 2   
    46    25    27 1   
    47    28    52 1   
    48    28    53 1   
    49    28    54 1   
    50    29    30 1   
    51    29    36 1   
    52    29    55 1   
    53    30    31 1   
    54    30    56 1   
    55    30    57 1   
    56    31    32 1   
    57    31    33 1   
    58    31    58 1   
    59    32    59 1   
    60    32    60 1   
    61    33    34 1   
    62    33    35 1   
    63    33    61 1   
    64    34    62 1   
    65    35    36 1   
    66    35    37 1   
    67    35    63 1   
    68    37    64 1   
    69    37    65 1   
    70    37    66 1   
@<TRIPOS>SUBSTRUCTURE
     1 DM3         1 TEMP              0 ****  ****    0 ROOT
