@<TRIPOS>MOLECULE
DM5
   63    67     1     0     0
SMALL
No Charge or Current Charge


@<TRIPOS>ATOM
      1 C1          -0.4510    -0.5690    -6.3090 ca         1 DM5      -0.064000
      2 C2          -1.4790    -0.1010    -7.1410 ca         1 DM5      -0.097000
      3 C3          -2.5010     0.6960    -6.6090 ca         1 DM5      -0.096000
      4 C4          -2.4950     1.0240    -5.2440 ca         1 DM5      -0.064000
      5 C5          -1.4640     0.5580    -4.3930 ca         1 DM5      -0.121600
      6 C6          -1.4800     0.9210    -2.9310 c          1 DM5       0.613300
      7 O6          -2.3800     1.6220    -2.4750 o          1 DM5      -0.572100
      8 C7          -0.3640     0.4060    -2.0360 ca         1 DM5      -0.242600
      9 C8          -0.3510     0.7150    -0.6510 ca         1 DM5       0.219100
     10 O8          -1.3200     1.5260    -0.1310 oh         1 DM5      -0.546100
     11 C9           0.6670     0.2260     0.2000 ca         1 DM5      -0.077300
     12 C10          0.6180     0.5460     1.7090 c6         1 DM5       0.237600
     13 O10         -0.6270     0.0210     2.2300 os         1 DM5      -0.479000
     14 C11          1.8030    -0.0220     2.5330 c6         1 DM5      -0.092400
     15 C12          3.1710    -0.0950     1.8070 c6         1 DM5       0.086000
     16 O12          4.0780    -0.8380     2.6540 oh         1 DM5      -0.647000
     17 C13          3.8020     1.3340     1.5220 c          1 DM5       0.541100
     18 O13          4.7440     1.7220     2.2040 o          1 DM5      -0.504100
     19 C14          3.3090     2.2100     0.3610 c3         1 DM5      -0.193100
     20 C15          2.9380    -0.9320     0.5170 c6         1 DM5      -0.052100
     21 C16          1.7380    -0.5080    -0.3550 ca         1 DM5      -0.026300
     22 C17          1.7260    -0.8370    -1.7300 ca         1 DM5       0.189100
     23 O17          2.7490    -1.5860    -2.2380 oh         1 DM5      -0.548100
     24 C18          0.6790    -0.3980    -2.5810 ca         1 DM5      -0.219600
     25 C19          0.6820    -0.7600    -4.0570 c          1 DM5       0.612300
     26 O19          1.5740    -1.4580    -4.5340 o          1 DM5      -0.570100
     27 C20         -0.4330    -0.2470    -4.9310 ca         1 DM5      -0.124600
     28 C21         -1.1230     0.6360     3.4350 c6         1 DM5       0.389300
     29 C22         -2.6570     0.4520     3.5410 c6         1 DM5      -0.091400
     30 C23         -3.0480    -1.0200     3.8410 c6         1 DM5       0.171500
     31 N3          -4.5130    -1.1220     4.0530 n8         1 DM5      -0.979200
     32 C24         -2.2460    -1.5700     5.0700 c6         1 DM5       0.149300
     33 O4          -2.6460    -0.8860     6.2780 oh         1 DM5      -0.688000
     34 C25         -0.7310    -1.3550     4.7810 c6         1 DM5       0.137300
     35 O5          -0.4690     0.0550     4.5880 os         1 DM5      -0.475000
     36 C26          0.1980    -1.8390     5.9230 c3         1 DM5      -0.093100
     37 H1           0.3340    -1.1870    -6.7410 ha         1 DM5       0.140000
     38 H2          -1.4820    -0.3560    -8.1990 ha         1 DM5       0.123000
     39 H3          -3.2990     1.0610    -7.2520 ha         1 DM5       0.123000
     40 H4          -3.2980     1.6430    -4.8490 ha         1 DM5       0.140000
     41 HO8         -1.9360     1.7380    -0.8790 ho         1 DM5       0.521000
     42 H10          0.6080     1.6420     1.8100 h1         1 DM5       0.066700
     43 H111         1.9120     0.5610     3.4580 hc         1 DM5       0.072700
     44 H112         1.5380    -1.0380     2.8540 hc         1 DM5       0.072700
     45 HO12         4.7260    -0.1820     3.0050 ho         1 DM5       0.450000
     46 H141         3.3360     1.6380    -0.5720 hc         1 DM5       0.064700
     47 H142         2.2460     2.4350     0.4810 hc         1 DM5       0.064700
     48 H143         3.8920     3.1330     0.2660 hc         1 DM5       0.064700
     49 H151         3.8660    -0.9120    -0.0700 hc         1 DM5       0.076200
     50 H152         2.7920    -1.9860     0.7910 hc         1 DM5       0.076200
     51 HO17         2.5510    -1.7170    -3.2020 ho         1 DM5       0.518000
     52 H7          -0.9140     1.7170     3.4040 h2         1 DM5       0.082700
     53 H2'1        -3.0390     1.1170     4.3260 hc         1 DM5       0.074700
     54 H2'2        -3.1250     0.7810     2.6050 hc         1 DM5       0.074700
     55 H8          -2.8050    -1.6280     2.9560 h1         1 DM5       0.027700
     56 HN'1        -4.7710    -2.1150     4.0650 hn         1 DM5       0.392500
     57 HN'2        -4.6880    -0.8320     5.0230 hn         1 DM5       0.392500
     58 H9          -2.4410    -2.6480     5.1680 h1         1 DM5       0.026700
     59 HO4         -2.0610    -0.0970     6.3350 ho         1 DM5       0.497000
     60 H5          -0.4560    -1.9060     3.8700 h1         1 DM5       0.042700
     61 H6'1         1.2510    -1.7120     5.6470 hc         1 DM5       0.044033
     62 H6'2         0.0270    -1.2830     6.8520 hc         1 DM5       0.044033
     63 H6'3         0.0370    -2.9030     6.1340 hc         1 DM5       0.044033
@<TRIPOS>BOND
     1     1     2 ar  
     2     1    27 ar  
     3     1    37 1   
     4     2     3 ar  
     5     2    38 1   
     6     3     4 ar  
     7     3    39 1   
     8     4     5 ar  
     9     4    40 1   
    10     5     6 1   
    11     5    27 ar  
    12     6     7 2   
    13     6     8 1   
    14     8     9 ar  
    15     8    24 ar  
    16     9    10 1   
    17     9    11 ar  
    18    10    41 1   
    19    11    12 1   
    20    11    21 ar  
    21    12    13 1   
    22    12    14 1   
    23    12    42 1   
    24    13    28 1   
    25    14    15 1   
    26    14    43 1   
    27    14    44 1   
    28    15    16 1   
    29    15    17 1   
    30    15    20 1   
    31    16    45 1   
    32    17    18 2   
    33    17    19 1   
    34    19    46 1   
    35    19    47 1   
    36    19    48 1   
    37    20    21 1   
    38    20    49 1   
    39    20    50 1   
    40    21    22 ar  
    41    22    23 1   
    42    22    24 ar  
    43    23    51 1   
    44    24    25 1   
    45    25    26 2   
    46    25    27 1   
    47    28    29 1   
    48    28    35 1   
    49    28    52 1   
    50    29    30 1   
    51    29    53 1   
    52    29    54 1   
    53    30    31 1   
    54    30    32 1   
    55    30    55 1   
    56    31    56 1   
    57    31    57 1   
    58    32    33 1   
    59    32    34 1   
    60    32    58 1   
    61    33    59 1   
    62    34    35 1   
    63    34    36 1   
    64    34    60 1   
    65    36    61 1   
    66    36    62 1   
    67    36    63 1   
@<TRIPOS>SUBSTRUCTURE
     1 DM5         1 TEMP              0 ****  ****    0 ROOT
