@<TRIPOS>MOLECULE
DM5
   63    67     1     0     0
SMALL
abcg2


@<TRIPOS>ATOM
      1 C1          -0.4930    -0.5910    -6.3640 ca         1 DM5      -0.064000
      2 C2          -1.5490    -0.1530    -7.1460 ca         1 DM5      -0.097000
      3 C3          -2.5910     0.5660    -6.5710 ca         1 DM5      -0.096000
      4 C4          -2.5800     0.8430    -5.2150 ca         1 DM5      -0.064000
      5 C5          -1.5250     0.4050    -4.4210 ca         1 DM5      -0.121600
      6 C6          -1.5280     0.7070    -2.9760 c          1 DM5       0.613300
      7 O6          -2.4560     1.3530    -2.4830 o          1 DM5      -0.572100
      8 C7          -0.4250     0.2230    -2.1640 ca         1 DM5      -0.242600
      9 C8          -0.4170     0.4760    -0.7930 ca         1 DM5       0.219100
     10 O8          -1.3720     1.1790    -0.2050 oh         1 DM5      -0.546100
     11 C9           0.6510     0.0030     0.0150 ca         1 DM5      -0.077300
     12 C10          0.5860     0.2460     1.5090 c6         1 DM5       0.237600
     13 O10         -0.6370    -0.2770     1.9890 os         1 DM5      -0.479000
     14 C11          1.7280    -0.4200     2.2690 c6         1 DM5      -0.092400
     15 C12          3.0690    -0.3270     1.5540 c6         1 DM5       0.086000
     16 O12          4.0090    -0.9720     2.3800 oh         1 DM5      -0.647000
     17 C13          3.4530     1.1510     1.3950 c          1 DM5       0.541100
     18 O13          3.3100     1.7250     0.3410 o          1 DM5      -0.504100
     19 C14          4.0160     1.8340     2.6110 c3         1 DM5      -0.193100
     20 C15          2.9420    -1.0310     0.2100 c6         1 DM5      -0.052100
     21 C16          1.7300    -0.6160    -0.5720 ca         1 DM5      -0.026300
     22 C17          1.7200    -0.8930    -1.9650 ca         1 DM5       0.189100
     23 O17          2.7670    -1.5480    -2.4540 oh         1 DM5      -0.548100
     24 C18          0.6500    -0.4890    -2.7540 ca         1 DM5      -0.219600
     25 C19          0.6620    -0.7770    -4.1810 c          1 DM5       0.612300
     26 O19          1.5970    -1.3860    -4.7050 o          1 DM5      -0.570100
     27 C20         -0.4740    -0.3160    -4.9990 ca         1 DM5      -0.124600
     28 C21         -1.3920     0.5670     2.8140 c6         1 DM5       0.389300
     29 C22         -2.7840    -0.0280     2.9490 c6         1 DM5      -0.091400
     30 C23         -2.7860    -1.2580     3.8480 c6         1 DM5       0.171500
     31 N3          -4.1430    -1.7470     4.0230 n8         1 DM5      -0.979200
     32 C24         -2.1460    -0.9050     5.1890 c6         1 DM5       0.149300
     33 O4          -2.9620     0.0240     5.8610 oh         1 DM5      -0.688000
     34 C25         -0.7400    -0.3630     4.9250 c6         1 DM5       0.137300
     35 O5          -0.7770     0.7620     4.0570 os         1 DM5      -0.475000
     36 C26         -0.0210     0.0730     6.1850 c3         1 DM5      -0.093100
     37 H1           0.3170    -1.1480    -6.8140 ha         1 DM5       0.140000
     38 H2          -1.5590    -0.3700    -8.2050 ha         1 DM5       0.123000
     39 H3          -3.4130     0.9100    -7.1840 ha         1 DM5       0.123000
     40 H4          -3.3940     1.4000    -4.7710 ha         1 DM5       0.140000
     41 HO8         -2.0260     1.4310    -0.9030 ho         1 DM5       0.521000
     42 H10          0.6220     1.3330     1.6750 h1         1 DM5       0.066700
     43 H111         1.7940     0.0110     3.2700 hc         1 DM5       0.072700
     44 H112         1.4980    -1.4840     2.3880 hc         1 DM5       0.072700
     45 HO12         4.8500    -1.0350     1.9130 ho         1 DM5       0.450000
     46 H141         3.9050     2.9130     2.5240 hc         1 DM5       0.064700
     47 H142         3.5530     1.4930     3.5350 hc         1 DM5       0.064700
     48 H143         5.0820     1.6080     2.6900 hc         1 DM5       0.064700
     49 H151         3.8410    -0.8720    -0.3910 hc         1 DM5       0.076200
     50 H152         2.8920    -2.1080     0.4020 hc         1 DM5       0.076200
     51 HO17         2.6190    -1.6630    -3.4220 ho         1 DM5       0.518000
     52 H7          -1.4490     1.5680     2.3740 h2         1 DM5       0.082700
     53 H2'1        -3.4460     0.7330     3.3690 hc         1 DM5       0.074700
     54 H2'2        -3.1670    -0.2700     1.9550 hc         1 DM5       0.074700
     55 H8          -2.1260    -2.0140     3.3970 h1         1 DM5       0.027700
     56 HN'1        -4.5170    -2.0100     3.1190 hn         1 DM5       0.392500
     57 HN'2        -4.1240    -2.6040     4.5650 hn         1 DM5       0.392500
     58 H9          -2.0350    -1.8300     5.7770 h1         1 DM5       0.026700
     59 HO4         -2.6550     0.1010     6.7690 ho         1 DM5       0.497000
     60 H5          -0.1640    -1.1790     4.4670 h1         1 DM5       0.042700
     61 H6'1         1.0090     0.3580     5.9670 hc         1 DM5       0.044033
     62 H6'2        -0.5080     0.9270     6.6590 hc         1 DM5       0.044033
     63 H6'3         0.0110    -0.7450     6.9060 hc         1 DM5       0.044033
@<TRIPOS>BOND
     1     1     2 ar  
     2     1    27 ar  
     3     1    37 1   
     4     2     3 ar  
     5     2    38 1   
     6     3     4 ar  
     7     3    39 1   
     8     4     5 ar  
     9     4    40 1   
    10     5     6 1   
    11     5    27 ar  
    12     6     7 2   
    13     6     8 1   
    14     8     9 ar  
    15     8    24 ar  
    16     9    10 1   
    17     9    11 ar  
    18    10    41 1   
    19    11    12 1   
    20    11    21 ar  
    21    12    13 1   
    22    12    14 1   
    23    12    42 1   
    24    13    28 1   
    25    14    15 1   
    26    14    43 1   
    27    14    44 1   
    28    15    16 1   
    29    15    17 1   
    30    15    20 1   
    31    16    45 1   
    32    17    18 2   
    33    17    19 1   
    34    19    46 1   
    35    19    47 1   
    36    19    48 1   
    37    20    21 1   
    38    20    49 1   
    39    20    50 1   
    40    21    22 ar  
    41    22    23 1   
    42    22    24 ar  
    43    23    51 1   
    44    24    25 1   
    45    25    26 2   
    46    25    27 1   
    47    28    29 1   
    48    28    35 1   
    49    28    52 1   
    50    29    30 1   
    51    29    53 1   
    52    29    54 1   
    53    30    31 1   
    54    30    32 1   
    55    30    55 1   
    56    31    56 1   
    57    31    57 1   
    58    32    33 1   
    59    32    34 1   
    60    32    58 1   
    61    33    59 1   
    62    34    35 1   
    63    34    36 1   
    64    34    60 1   
    65    36    61 1   
    66    36    62 1   
    67    36    63 1   
@<TRIPOS>SUBSTRUCTURE
     1 DM5         1 TEMP              0 ****  ****    0 ROOT
