@<TRIPOS>MOLECULE
DM8
   67    71     1     0     0
SMALL
No Charge or Current Charge


@<TRIPOS>ATOM
      1 C1          -0.0550     0.4620    -6.6270 ca         1 DM8      -0.104000
      2 C2           1.0800     0.1240    -7.3740 ca         1 DM8      -0.063000
      3 C3           2.2730    -0.2090    -6.7200 ca         1 DM8      -0.193000
      4 C4           2.3460    -0.1920    -5.3090 ca         1 DM8       0.186100
      5 C5           1.2540     0.2620    -3.0400 c          1 DM8       0.600300
      6 C6          -0.1160    -0.1860    -0.9210 ca         1 DM8       0.177100
      7 C7          -1.3630    -0.6760     1.2790 c6         1 DM8       0.226600
      8 C8          -2.6990    -0.3540     1.9870 c6         1 DM8      -0.095400
      9 C9          -3.9700    -0.7050     1.1700 c6         1 DM8       0.087000
     10 C10         -3.8960     0.1250    -0.1410 c6         1 DM8      -0.051100
     11 C11         -2.4970     0.4880    -2.2420 ca         1 DM8       0.185100
     12 C12         -1.2560     0.8160    -4.4390 c          1 DM8       0.613300
     13 C13         -4.1200    -2.2610     0.9040 c          1 DM8       0.535100
     14 C14         -3.4440    -2.9290    -0.3060 c3         1 DM8      -0.194100
     15 C15         -0.0090     0.4790    -5.2170 ca         1 DM8      -0.100600
     16 C16          1.2020     0.1680    -4.5490 ca         1 DM8      -0.159600
     17 C17         -0.0690     0.1740    -2.2910 ca         1 DM8      -0.138600
     18 C18         -1.2790     0.4920    -2.9620 ca         1 DM8      -0.224600
     19 C19         -2.5360     0.1280    -0.8750 ca         1 DM8      -0.041300
     20 C20         -1.3370    -0.2140    -0.2030 ca         1 DM8      -0.116300
     21 C21          4.7130    -0.9270    -5.3530 c3         1 DM8       0.146900
     22 O4           3.5130    -0.5480    -4.6570 os         1 DM8      -0.309100
     23 O5           2.3040     0.5200    -2.4610 o          1 DM8      -0.475100
     24 O6           1.0220    -0.5280    -0.2570 oh         1 DM8      -0.524100
     25 O7          -0.2410    -0.0700     1.9740 os         1 DM8      -0.514000
     26 O9          -5.1200    -0.2470     1.9200 oh         1 DM8      -0.646000
     27 O11         -3.6600     0.8270    -2.8750 oh         1 DM8      -0.552100
     28 O12         -2.2300     1.3210    -4.9920 o          1 DM8      -0.567100
     29 O13         -4.8580    -2.9280     1.6220 o          1 DM8      -0.499100
     30 C22          0.0600    -0.5780     3.2980 c6         1 DM8       0.393300
     31 C23          1.5580    -0.3590     3.6430 c6         1 DM8       0.063300
     32 C24          1.8760     1.1610     3.7730 c6         1 DM8       0.172500
     33 C25          0.9010     1.8450     4.7860 c6         1 DM8       0.143300
     34 C26         -0.5690     1.5290     4.3620 c6         1 DM8       0.141300
     35 C27         -1.6240     2.0470     5.3710 c3         1 DM8      -0.091100
     36 O3          -0.7680     0.0990     4.2700 os         1 DM8      -0.455000
     37 O2           1.1540     3.2700     4.8460 oh         1 DM8      -0.720000
     38 N3           3.3010     1.4230     4.1300 n8         1 DM8      -0.992200
     39 Br           2.0650    -1.3920     5.3170 br         1 DM8      -0.222000
     40 H1          -0.9770     0.7040    -7.1520 ha         1 DM8       0.140000
     41 H2           1.0310     0.1100    -8.4610 ha         1 DM8       0.119000
     42 H3           3.1300    -0.4800    -7.3290 ha         1 DM8       0.122000
     43 H7          -1.2140    -1.7650     1.2910 h1         1 DM8       0.054700
     44 H81         -2.7150     0.7170     2.2330 hc         1 DM8       0.078700
     45 H82         -2.7430    -0.8870     2.9460 hc         1 DM8       0.078700
     46 H101        -4.1420     1.1720     0.0870 hc         1 DM8       0.076700
     47 H102        -4.6990    -0.2140    -0.8090 hc         1 DM8       0.076700
     48 H141        -3.7650    -2.4260    -1.2240 hc         1 DM8       0.065367
     49 H142        -2.3670    -2.7480    -0.3020 hc         1 DM8       0.065367
     50 H143        -3.6640    -4.0020    -0.3610 hc         1 DM8       0.065367
     51 H211         5.5090    -1.1630    -4.6350 h1         1 DM8       0.045033
     52 H212         4.5420    -1.8160    -5.9730 h1         1 DM8       0.045033
     53 H213         5.0670    -0.1100    -5.9950 h1         1 DM8       0.045033
     54 H6           0.8060    -0.4020     0.6990 ho         1 DM8       0.487000
     55 H9          -5.5060    -1.0450     2.3490 ho         1 DM8       0.452000
     56 H11         -3.4130     1.1080    -3.7930 ho         1 DM8       0.518000
     57 H12         -0.1440    -1.6600     3.3330 h2         1 DM8       0.088700
     58 H13          2.1820    -0.8090     2.8600 h1         1 DM8       0.095700
     59 H15          1.7060     1.6320     2.7920 h1         1 DM8       0.051700
     60 H4           1.0700     1.3970     5.7780 h1         1 DM8       0.068700
     61 H5          -0.7760     1.9840     3.3820 h1         1 DM8       0.063700
     62 H6'1        -2.6340     1.7500     5.0640 hc         1 DM8       0.048033
     63 H6'2        -1.4460     1.6460     6.3760 hc         1 DM8       0.048033
     64 H6'3        -1.6130     3.1410     5.4350 hc         1 DM8       0.048033
     65 HO4          0.7210     3.6080     5.6650 ho         1 DM8       0.512000
     66 HN'1         3.8650     1.4290     3.2710 hn         1 DM8       0.410000
     67 HN'2         3.3460     2.4000     4.4470 hn         1 DM8       0.410000
@<TRIPOS>BOND
     1     1     2 ar  
     2     1    15 ar  
     3     1    40 1   
     4     2     3 ar  
     5     2    41 1   
     6     3     4 ar  
     7     3    42 1   
     8     4    16 ar  
     9     4    22 1   
    10     5    16 1   
    11     5    17 1   
    12     5    23 2   
    13     6    17 ar  
    14     6    20 ar  
    15     6    24 1   
    16     7     8 1   
    17     7    20 1   
    18     7    25 1   
    19     7    43 1   
    20     8     9 1   
    21     8    44 1   
    22     8    45 1   
    23     9    10 1   
    24     9    13 1   
    25     9    26 1   
    26    10    19 1   
    27    10    46 1   
    28    10    47 1   
    29    11    18 ar  
    30    11    19 ar  
    31    11    27 1   
    32    12    15 1   
    33    12    18 1   
    34    12    28 2   
    35    13    14 1   
    36    13    29 2   
    37    14    48 1   
    38    14    49 1   
    39    14    50 1   
    40    15    16 ar  
    41    17    18 ar  
    42    19    20 ar  
    43    21    22 1   
    44    21    51 1   
    45    21    52 1   
    46    21    53 1   
    47    24    54 1   
    48    25    30 1   
    49    26    55 1   
    50    27    56 1   
    51    30    31 1   
    52    30    36 1   
    53    30    57 1   
    54    31    32 1   
    55    31    39 1   
    56    31    58 1   
    57    32    33 1   
    58    32    38 1   
    59    32    59 1   
    60    33    34 1   
    61    33    37 1   
    62    33    60 1   
    63    34    35 1   
    64    34    36 1   
    65    34    61 1   
    66    35    62 1   
    67    35    63 1   
    68    35    64 1   
    69    37    65 1   
    70    38    66 1   
    71    38    67 1   
@<TRIPOS>SUBSTRUCTURE
     1 DM8         1 TEMP              0 ****  ****    0 ROOT
