@<TRIPOS>MOLECULE
DM8
   67    71     1     0     0
SMALL
abcg2


@<TRIPOS>ATOM
      1 C1          -0.0370     0.7500    -6.5630 ca         1 DM8      -0.104000
      2 C2           1.1040     0.5330    -7.3120 ca         1 DM8      -0.063000
      3 C3           2.3000     0.2010    -6.6990 ca         1 DM8      -0.193000
      4 C4           2.3830     0.0950    -5.3080 ca         1 DM8       0.186100
      5 C5           1.2780     0.3040    -3.0430 c          1 DM8       0.600300
      6 C6          -0.0560    -0.2010    -0.9840 ca         1 DM8       0.177100
      7 C7          -1.3310    -0.7300     1.1460 c6         1 DM8       0.226600
      8 C8          -2.6470    -0.4220     1.8440 c6         1 DM8      -0.095400
      9 C9          -3.8480    -0.8070     0.9880 c6         1 DM8       0.087000
     10 C10         -3.8180     0.0260    -0.2850 c6         1 DM8      -0.051100
     11 C11         -2.4270     0.4730    -2.2980 ca         1 DM8       0.185100
     12 C12         -1.2150     0.8190    -4.4070 c          1 DM8       0.613300
     13 C13         -3.7970    -2.3120     0.6800 c          1 DM8       0.535100
     14 C14         -4.2140    -3.2450     1.7820 c3         1 DM8      -0.194100
     15 C15          0.0290     0.6330    -5.1800 ca         1 DM8      -0.100600
     16 C16          1.2300     0.3260    -4.5280 ca         1 DM8      -0.159600
     17 C17         -0.0110     0.1680    -2.3230 ca         1 DM8      -0.138600
     18 C18         -1.2150     0.4880    -2.9880 ca         1 DM8      -0.224600
     19 C19         -2.4720     0.0710    -0.9470 ca         1 DM8      -0.041300
     20 C20         -1.2980    -0.2480    -0.2940 ca         1 DM8      -0.116300
     21 C21          4.6650    -0.5420    -5.4510 c3         1 DM8       0.146900
     22 O4           3.5120    -0.2420    -4.6840 os         1 DM8      -0.309100
     23 O5           2.3290     0.4290    -2.4490 o          1 DM8      -0.475100
     24 O6           1.0720    -0.5640    -0.3640 oh         1 DM8      -0.524100
     25 O7          -0.2310    -0.1210     1.8320 os         1 DM8      -0.514000
     26 O9          -4.9900    -0.5250     1.7610 oh         1 DM8      -0.646000
     27 O11         -3.5810     0.8180    -2.8630 oh         1 DM8      -0.552100
     28 O12         -2.2390     1.1980    -4.9740 o          1 DM8      -0.567100
     29 O13         -3.4410    -2.7110    -0.4040 o          1 DM8      -0.499100
     30 C22          0.0720    -0.6190     3.1210 c6         1 DM8       0.393300
     31 C23          1.5660    -0.3650     3.3330 c6         1 DM8       0.063300
     32 C24          1.8540     1.1220     3.4780 c6         1 DM8       0.172500
     33 C25          0.9400     1.7420     4.5310 c6         1 DM8       0.143300
     34 C26         -0.5260     1.3900     4.2530 c6         1 DM8       0.141300
     35 C27         -1.4500     1.8230     5.3710 c3         1 DM8      -0.091100
     36 O3          -0.6860    -0.0220     4.1090 os         1 DM8      -0.455000
     37 O2           1.1190     3.1400     4.4770 oh         1 DM8      -0.720000
     38 N3           3.2430     1.3660     3.8000 n8         1 DM8      -0.992200
     39 BR           2.1310    -1.3780     4.9200 br         1 DM8      -0.222000
     40 H1          -0.9700     1.0000    -7.0470 ha         1 DM8       0.140000
     41 H2           1.0690     0.6150    -8.3900 ha         1 DM8       0.119000
     42 H3           3.1670     0.0250    -7.3190 ha         1 DM8       0.122000
     43 H7          -1.1620    -1.8170     1.1400 h1         1 DM8       0.054700
     44 H81         -2.7120     0.6520     2.0400 hc         1 DM8       0.078700
     45 H82         -2.6910    -0.9350     2.8050 hc         1 DM8       0.078700
     46 H101        -4.1150     1.0460    -0.0210 hc         1 DM8       0.076700
     47 H102        -4.5670    -0.3380    -0.9920 hc         1 DM8       0.076700
     48 H141        -3.8280    -4.2460     1.5960 hc         1 DM8       0.065367
     49 H142        -3.8890    -2.9050     2.7630 hc         1 DM8       0.065367
     50 H143        -5.3040    -3.3020     1.8140 hc         1 DM8       0.065367
     51 H211         5.4360    -0.8210    -4.7370 h1         1 DM8       0.045033
     52 H212         4.4950    -1.3790    -6.1330 h1         1 DM8       0.045033
     53 H213         5.0100     0.3210    -6.0230 h1         1 DM8       0.045033
     54 H6           0.9160    -0.5110     0.5940 ho         1 DM8       0.487000
     55 H9          -5.7780    -0.6450     1.2190 ho         1 DM8       0.452000
     56 H11         -3.3870     1.0790    -3.7940 ho         1 DM8       0.518000
     57 H12         -0.1500    -1.6920     3.1600 h2         1 DM8       0.088700
     58 H13          2.1460    -0.7960     2.5140 h1         1 DM8       0.095700
     59 H15          1.5670     1.5550     2.5050 h1         1 DM8       0.051700
     60 H4           1.2240     1.3530     5.5170 h1         1 DM8       0.068700
     61 H5          -0.8290     1.8930     3.3260 h1         1 DM8       0.063700
     62 H6'1        -2.4800     1.5400     5.1540 hc         1 DM8       0.048033
     63 H6'2        -1.1610     1.3730     6.3220 hc         1 DM8       0.048033
     64 H6'3        -1.4280     2.9060     5.4850 hc         1 DM8       0.048033
     65 HO4          0.9580     3.5100     5.3490 ho         1 DM8       0.512000
     66 HN'1         3.8320     1.0240     3.0500 hn         1 DM8       0.410000
     67 HN'2         3.3960     2.3660     3.8360 hn         1 DM8       0.410000
@<TRIPOS>BOND
     1     1     2 ar  
     2     1    15 ar  
     3     1    40 1   
     4     2     3 ar  
     5     2    41 1   
     6     3     4 ar  
     7     3    42 1   
     8     4    16 ar  
     9     4    22 1   
    10     5    16 1   
    11     5    17 1   
    12     5    23 2   
    13     6    17 ar  
    14     6    20 ar  
    15     6    24 1   
    16     7     8 1   
    17     7    20 1   
    18     7    25 1   
    19     7    43 1   
    20     8     9 1   
    21     8    44 1   
    22     8    45 1   
    23     9    10 1   
    24     9    13 1   
    25     9    26 1   
    26    10    19 1   
    27    10    46 1   
    28    10    47 1   
    29    11    18 ar  
    30    11    19 ar  
    31    11    27 1   
    32    12    15 1   
    33    12    18 1   
    34    12    28 2   
    35    13    14 1   
    36    13    29 2   
    37    14    48 1   
    38    14    49 1   
    39    14    50 1   
    40    15    16 ar  
    41    17    18 ar  
    42    19    20 ar  
    43    21    22 1   
    44    21    51 1   
    45    21    52 1   
    46    21    53 1   
    47    24    54 1   
    48    25    30 1   
    49    26    55 1   
    50    27    56 1   
    51    30    31 1   
    52    30    36 1   
    53    30    57 1   
    54    31    32 1   
    55    31    39 1   
    56    31    58 1   
    57    32    33 1   
    58    32    38 1   
    59    32    59 1   
    60    33    34 1   
    61    33    37 1   
    62    33    60 1   
    63    34    35 1   
    64    34    36 1   
    65    34    61 1   
    66    35    62 1   
    67    35    63 1   
    68    35    64 1   
    69    37    65 1   
    70    38    66 1   
    71    38    67 1   
@<TRIPOS>SUBSTRUCTURE
     1 DM8         1 TEMP              0 ****  ****    0 ROOT
