@<TRIPOS>MOLECULE
DM9
   83    87     1     0     0
SMALL
No Charge or Current Charge


@<TRIPOS>ATOM
      1 C1           1.2970     1.0590    -6.4870 ca         1 DM9      -0.149000
      2 C2           2.6200     0.9350    -6.9140 ca         1 DM9      -0.051000
      3 C3           3.5860     0.4360    -6.0430 ca         1 DM9      -0.230000
      4 C4           3.2400     0.0540    -4.7310 ca         1 DM9       0.175100
      5 O4           4.2220    -0.4400    -3.8830 os         1 DM9      -0.389100
      6 C5           1.4750    -0.1930    -2.9650 ca         1 DM9       0.239100
      7 O5           2.4280    -0.6870    -2.1250 oh         1 DM9      -0.504100
      8 C6          -0.3190    -0.4100    -1.2080 ca         1 DM9       0.186100
      9 O6           0.5440    -0.8550    -0.2540 oh         1 DM9      -0.539100
     10 C7          -2.1090    -0.7380     0.6210 c6         1 DM9       0.238600
     11 O7          -1.1470    -0.2370     1.5830 os         1 DM9      -0.521000
     12 C8          -3.5410    -0.2900     0.9930 c6         1 DM9      -0.090400
     13 C9          -4.5950    -0.5020    -0.1220 c6         1 DM9       0.087000
     14 O9          -5.8470     0.0620     0.3370 oh         1 DM9      -0.651000
     15 C10         -4.1140     0.3310    -1.3420 c6         1 DM9      -0.041100
     16 C11         -2.2090     0.5710    -3.0190 ca         1 DM9       0.102100
     17 O11         -3.1540     1.0660    -3.8730 oh         1 DM9      -0.563100
     18 C12         -0.4410     0.8180    -4.7650 ca         1 DM9       0.026100
     19 O12         -1.3510     1.3140    -5.6730 oh         1 DM9      -0.565100
     20 C13         -4.8200    -2.0320    -0.4730 c          1 DM9       0.537100
     21 O13         -5.7760    -2.6280     0.0130 o          1 DM9      -0.498100
     22 C14         -3.9290    -2.7550    -1.4970 c3         1 DM9      -0.194100
     23 C15          0.9100     0.6840    -5.1740 ca         1 DM9       0.014000
     24 C16          1.8840     0.1760    -4.2780 ca         1 DM9      -0.161000
     25 C17          0.1150    -0.0610    -2.5300 ca         1 DM9      -0.089000
     26 C18         -0.8500     0.4460    -3.4440 ca         1 DM9      -0.003000
     27 C19         -2.6220     0.1920    -1.7240 ca         1 DM9      -0.036300
     28 C20         -1.6690    -0.2860    -0.8000 ca         1 DM9      -0.185300
     29 C21          5.6030    -0.5880    -4.2730 c3         1 DM9       0.161900
     30 C22         -1.2120    -0.7900     2.9170 c6         1 DM9       0.384300
     31 C23          0.1830    -0.7320     3.5780 c6         1 DM9      -0.100400
     32 C24          0.6780     0.7260     3.8640 c6         1 DM9       0.182500
     33 C25         -0.4660     1.5090     4.6100 c6         1 DM9       0.147300
     34 O2          -0.4930     1.0720     5.9800 oh         1 DM9      -0.714000
     35 C26         -1.8290     1.3420     3.8660 c6         1 DM9       0.177300
     36 O8          -2.1630    -0.0520     3.7020 os         1 DM9      -0.457000
     37 C27         -3.0190     2.0110     4.5980 c3         1 DM9      -0.083100
     38 N3           1.9780     0.7270     4.6500 n3         1 DM9      -0.770600
     39 C31          2.4020     2.0600     5.1050 c3         1 DM9       0.425800
     40 O31          1.9480     2.1590     6.4420 oh         1 DM9      -0.675000
     41 C41          3.1110    -0.0050     3.9840 c3         1 DM9       0.196800
     42 C42          4.3690    -0.3020     4.8570 c3         1 DM9       0.157600
     43 O42          4.0090    -1.1970     5.9290 os         1 DM9      -0.437000
     44 C43          5.0920    -1.5380     6.8100 c3         1 DM9       0.145900
     45 H1           0.5880     1.4540    -7.2080 ha         1 DM9       0.118000
     46 H2           2.8950     1.2280    -7.9250 ha         1 DM9       0.113000
     47 H3           4.6040     0.3540    -6.4120 ha         1 DM9       0.119000
     48 HO5          3.2680    -0.6790    -2.6460 ho         1 DM9       0.497000
     49 HO6          0.0810    -0.6750     0.6020 ho         1 DM9       0.490000
     50 H7          -2.0690    -1.8370     0.6480 h1         1 DM9       0.049700
     51 H81         -3.8690    -0.8260     1.8930 hc         1 DM9       0.072700
     52 H82         -3.5140     0.7740     1.2640 hc         1 DM9       0.072700
     53 HO9         -6.4020    -0.6990     0.6280 ho         1 DM9       0.448000
     54 H101        -4.7600     0.0850    -2.1950 hc         1 DM9       0.067700
     55 H102        -4.3000     1.3950    -1.1410 hc         1 DM9       0.067700
     56 HO11        -2.6580     1.2590    -4.7130 ho         1 DM9       0.492000
     57 HO12        -0.8880     1.5050    -6.5170 ho         1 DM9       0.463000
     58 H141        -3.9400    -2.2040    -2.4430 hc         1 DM9       0.063033
     59 H142        -2.8770    -2.7000    -1.2060 hc         1 DM9       0.063033
     60 H143        -4.2390    -3.7940    -1.6550 hc         1 DM9       0.063033
     61 H211         6.1910    -0.9960    -3.4410 h1         1 DM9       0.048033
     62 H212         5.6980    -1.2760    -5.1220 h1         1 DM9       0.048033
     63 H213         6.0370     0.3800    -4.5510 h1         1 DM9       0.048033
     64 H9          -1.5230    -1.8450     2.8650 h2         1 DM9       0.075700
     65 H2'1         0.8710    -1.2610     2.9120 hc         1 DM9       0.080700
     66 H2'2         0.1540    -1.3030     4.5150 hc         1 DM9       0.080700
     67 H11          0.8390     1.2240     2.8950 h1         1 DM9       0.035700
     68 H4          -0.2210     2.5800     4.5870 h1         1 DM9       0.018700
     69 HO4          0.4750     1.1600     6.2220 ho         1 DM9       0.535000
     70 H5          -1.7490     1.8100     2.8740 h1         1 DM9       0.042700
     71 H6'1        -3.9400     1.9170     4.0110 hc         1 DM9       0.047367
     72 H6'2        -3.1970     1.5550     5.5780 hc         1 DM9       0.047367
     73 H6'3        -2.8320     3.0800     4.7530 hc         1 DM9       0.047367
     74 H311         3.4920     2.1700     5.0980 h2         1 DM9       0.016700
     75 H312         1.9610     2.8530     4.4890 h2         1 DM9       0.016700
     76 HO31         2.3480     2.9820     6.7940 ho         1 DM9       0.451000
     77 H411         3.4390     0.5590     3.1000 h1         1 DM9       0.045200
     78 H412         2.7870    -0.9850     3.6200 h1         1 DM9       0.045200
     79 H421         4.7960     0.6280     5.2530 h1         1 DM9       0.021200
     80 H422         5.1320    -0.7680     4.2200 h1         1 DM9       0.021200
     81 H431         4.7450    -2.2200     7.5960 h1         1 DM9       0.026700
     82 H432         5.9010    -2.0350     6.2580 h1         1 DM9       0.026700
     83 H433         5.5000    -0.6390     7.2920 h1         1 DM9       0.026700
@<TRIPOS>BOND
     1     1     2 ar  
     2     1    23 ar  
     3     1    45 1   
     4     2     3 ar  
     5     2    46 1   
     6     3     4 ar  
     7     3    47 1   
     8     4     5 1   
     9     4    24 ar  
    10     5    29 1   
    11     6     7 1   
    12     6    24 ar  
    13     6    25 ar  
    14     7    48 1   
    15     8     9 1   
    16     8    25 ar  
    17     8    28 ar  
    18     9    49 1   
    19    10    11 1   
    20    10    12 1   
    21    10    28 1   
    22    10    50 1   
    23    11    30 1   
    24    12    13 1   
    25    12    51 1   
    26    12    52 1   
    27    13    14 1   
    28    13    15 1   
    29    13    20 1   
    30    14    53 1   
    31    15    27 1   
    32    15    54 1   
    33    15    55 1   
    34    16    17 1   
    35    16    26 ar  
    36    16    27 ar  
    37    17    56 1   
    38    18    19 1   
    39    18    23 ar  
    40    18    26 ar  
    41    19    57 1   
    42    20    21 2   
    43    20    22 1   
    44    22    58 1   
    45    22    59 1   
    46    22    60 1   
    47    23    24 ar  
    48    25    26 ar  
    49    27    28 ar  
    50    29    61 1   
    51    29    62 1   
    52    29    63 1   
    53    30    31 1   
    54    30    36 1   
    55    30    64 1   
    56    31    32 1   
    57    31    65 1   
    58    31    66 1   
    59    32    33 1   
    60    32    38 1   
    61    32    67 1   
    62    33    34 1   
    63    33    35 1   
    64    33    68 1   
    65    34    69 1   
    66    35    36 1   
    67    35    37 1   
    68    35    70 1   
    69    37    71 1   
    70    37    72 1   
    71    37    73 1   
    72    38    39 1   
    73    38    41 1   
    74    39    40 1   
    75    39    74 1   
    76    39    75 1   
    77    40    76 1   
    78    41    42 1   
    79    41    77 1   
    80    41    78 1   
    81    42    43 1   
    82    42    79 1   
    83    42    80 1   
    84    43    44 1   
    85    44    81 1   
    86    44    82 1   
    87    44    83 1   
@<TRIPOS>SUBSTRUCTURE
     1 DM9         1 TEMP              0 ****  ****    0 ROOT
