@<TRIPOS>MOLECULE
DM9
   83    87     1     0     0
SMALL
bcc


@<TRIPOS>ATOM
      1 C1           1.5590     0.7270    -6.5330 ca         1 DM9      -0.167000
      2 C2           2.8520     0.5530    -6.9080 ca         1 DM9      -0.069000
      3 C3           3.8360     0.1410    -5.9800 ca         1 DM9      -0.248000
      4 C4           3.4860    -0.1070    -4.6840 ca         1 DM9       0.175100
      5 O4           4.3780    -0.5100    -3.7530 os         1 DM9      -0.365900
      6 C5           1.7140    -0.2280    -2.9040 ca         1 DM9       0.239100
      7 O5           2.5820    -0.6600    -1.9890 oh         1 DM9      -0.465100
      8 C6          -0.1050    -0.3450    -1.1890 ca         1 DM9       0.186100
      9 O6           0.7750    -0.8250    -0.2910 oh         1 DM9      -0.500100
     10 C7          -1.9020    -0.5670     0.5480 c6         1 DM9       0.215400
     11 O7          -0.9350    -0.1410     1.5170 os         1 DM9      -0.474600
     12 C8          -3.2710     0.0000     0.8970 c6         1 DM9      -0.090400
     13 C9          -4.2820    -0.1920    -0.2250 c6         1 DM9       0.063800
     14 O9          -5.5050     0.3240     0.2510 oh         1 DM9      -0.588800
     15 C10         -3.8000     0.5680    -1.4510 c6         1 DM9      -0.041100
     16 C11         -1.9390     0.6460    -3.0600 ca         1 DM9       0.102100
     17 O11         -2.8680     1.1550    -3.9020 oh         1 DM9      -0.524100
     18 C12         -0.1510     0.6990    -4.7790 ca         1 DM9       0.026100
     19 O12         -1.0740     1.1200    -5.7130 oh         1 DM9      -0.526100
     20 C13         -4.4460    -1.6920    -0.5100 c          1 DM9       0.537100
     21 O13         -3.9330    -2.2040    -1.4780 o          1 DM9      -0.498100
     22 C14         -5.2830    -2.4820     0.4590 c3         1 DM9      -0.194100
     23 C15          1.1630     0.4960    -5.1820 ca         1 DM9       0.014000
     24 C16          2.1270     0.0490    -4.2260 ca         1 DM9      -0.161000
     25 C17          0.3630    -0.0550    -2.5140 ca         1 DM9      -0.089000
     26 C18         -0.5840     0.4390    -3.4730 ca         1 DM9      -0.003000
     27 C19         -2.3530     0.3390    -1.7900 ca         1 DM9      -0.036300
     28 C20         -1.4260    -0.1550    -0.8360 ca         1 DM9      -0.185300
     29 C21          5.7400    -0.6960    -4.1070 c3         1 DM9       0.138700
     30 C22         -0.8590    -0.8840     2.7260 c6         1 DM9       0.337900
     31 C23          0.4860    -0.5790     3.3650 c6         1 DM9      -0.100400
     32 C24          0.5410     0.8460     3.9170 c6         1 DM9       0.182500
     33 C25         -0.6420     0.9980     4.8900 c6         1 DM9       0.124100
     34 O2          -0.5340     0.1480     5.9990 oh         1 DM9      -0.591800
     35 C26         -1.9380     0.6940     4.1430 c6         1 DM9       0.154100
     36 O8          -1.9200    -0.6130     3.5780 os         1 DM9      -0.410600
     37 C27         -3.1640     0.7810     5.0270 c3         1 DM9      -0.083100
     38 N3           1.8390     1.1010     4.5410 n3         1 DM9      -0.770600
     39 C31          1.9050     2.1830     5.4730 c3         1 DM9       0.402600
     40 O31          1.5740     1.7080     6.7720 oh         1 DM9      -0.612800
     41 C41          2.9650     1.0960     3.6160 c3         1 DM9       0.196800
     42 C42          4.1760     0.3870     4.1850 c3         1 DM9       0.134400
     43 O42          3.8830    -0.9750     4.3530 os         1 DM9      -0.390600
     44 C43          4.9440    -1.6880     4.9310 c3         1 DM9       0.122700
     45 H1           0.8280     1.0270    -7.2710 ha         1 DM9       0.136000
     46 H2           3.1450     0.7270    -7.9350 ha         1 DM9       0.131000
     47 H3           4.8550     0.0220    -6.3200 ha         1 DM9       0.137000
     48 HO5          3.4660    -0.7260    -2.3940 ho         1 DM9       0.458000
     49 HO6          0.3920    -0.6400     0.5860 ho         1 DM9       0.451000
     50 H7          -1.9430    -1.6670     0.5830 h1         1 DM9       0.049700
     51 H81         -3.6350    -0.4560     1.8170 hc         1 DM9       0.072700
     52 H82         -3.1770     1.0750     1.0780 hc         1 DM9       0.072700
     53 HO9         -6.1390     0.3510    -0.4750 ho         1 DM9       0.409000
     54 H101        -4.4300     0.3270    -2.3090 hc         1 DM9       0.067700
     55 H102        -3.9580     1.6340    -1.2500 hc         1 DM9       0.067700
     56 HO11        -2.4580     1.2810    -4.7760 ho         1 DM9       0.453000
     57 HO12        -0.7970     1.9540    -6.1140 ho         1 DM9       0.424000
     58 H141        -5.0910    -3.5460     0.3440 hc         1 DM9       0.063033
     59 H142        -5.1060    -2.1920     1.4940 hc         1 DM9       0.063033
     60 H143        -6.3410    -2.3020     0.2600 hc         1 DM9       0.063033
     61 H211         6.2440    -1.0240    -3.2020 h1         1 DM9       0.048033
     62 H212         5.8490    -1.4600    -4.8780 h1         1 DM9       0.048033
     63 H213         6.1900     0.2360    -4.4510 h1         1 DM9       0.048033
     64 H9          -0.9360    -1.9540     2.4930 h2         1 DM9       0.075700
     65 H2'1         1.2770    -0.7760     2.6410 hc         1 DM9       0.080700
     66 H2'2         0.6450    -1.2830     4.1830 hc         1 DM9       0.080700
     67 H11          0.3630     1.5660     3.1000 h1         1 DM9       0.035700
     68 H4          -0.7250     2.0510     5.1990 h1         1 DM9       0.018700
     69 HO4          0.2270     0.4820     6.5040 ho         1 DM9       0.436000
     70 H5          -2.0330     1.4440     3.3480 h1         1 DM9       0.042700
     71 H6'1        -4.0720     0.6450     4.4390 hc         1 DM9       0.047367
     72 H6'2        -3.1490     0.0320     5.8180 hc         1 DM9       0.047367
     73 H6'3        -3.2170     1.7660     5.4920 hc         1 DM9       0.047367
     74 H311         2.9280     2.5720     5.4800 h2         1 DM9       0.016700
     75 H312         1.2470     3.0230     5.2040 h2         1 DM9       0.016700
     76 HO31         1.2940     2.4560     7.3110 ho         1 DM9       0.412000
     77 H411         3.2640     2.1120     3.3250 h1         1 DM9       0.045200
     78 H412         2.6820     0.6060     2.6850 h1         1 DM9       0.045200
     79 H421         4.4660     0.8470     5.1420 h1         1 DM9       0.021200
     80 H422         5.0250     0.5280     3.5000 h1         1 DM9       0.021200
     81 H431         4.6260    -2.7230     5.0580 h1         1 DM9       0.026700
     82 H432         5.8430    -1.6810     4.3020 h1         1 DM9       0.026700
     83 H433         5.2210    -1.2900     5.9140 h1         1 DM9       0.026700
@<TRIPOS>BOND
     1     1     2 ar  
     2     1    23 ar  
     3     1    45 1   
     4     2     3 ar  
     5     2    46 1   
     6     3     4 ar  
     7     3    47 1   
     8     4     5 1   
     9     4    24 ar  
    10     5    29 1   
    11     6     7 1   
    12     6    24 ar  
    13     6    25 ar  
    14     7    48 1   
    15     8     9 1   
    16     8    25 ar  
    17     8    28 ar  
    18     9    49 1   
    19    10    11 1   
    20    10    12 1   
    21    10    28 1   
    22    10    50 1   
    23    11    30 1   
    24    12    13 1   
    25    12    51 1   
    26    12    52 1   
    27    13    14 1   
    28    13    15 1   
    29    13    20 1   
    30    14    53 1   
    31    15    27 1   
    32    15    54 1   
    33    15    55 1   
    34    16    17 1   
    35    16    26 ar  
    36    16    27 ar  
    37    17    56 1   
    38    18    19 1   
    39    18    23 ar  
    40    18    26 ar  
    41    19    57 1   
    42    20    21 2   
    43    20    22 1   
    44    22    58 1   
    45    22    59 1   
    46    22    60 1   
    47    23    24 ar  
    48    25    26 ar  
    49    27    28 ar  
    50    29    61 1   
    51    29    62 1   
    52    29    63 1   
    53    30    31 1   
    54    30    36 1   
    55    30    64 1   
    56    31    32 1   
    57    31    65 1   
    58    31    66 1   
    59    32    33 1   
    60    32    38 1   
    61    32    67 1   
    62    33    34 1   
    63    33    35 1   
    64    33    68 1   
    65    34    69 1   
    66    35    36 1   
    67    35    37 1   
    68    35    70 1   
    69    37    71 1   
    70    37    72 1   
    71    37    73 1   
    72    38    39 1   
    73    38    41 1   
    74    39    40 1   
    75    39    74 1   
    76    39    75 1   
    77    40    76 1   
    78    41    42 1   
    79    41    77 1   
    80    41    78 1   
    81    42    43 1   
    82    42    79 1   
    83    42    80 1   
    84    43    44 1   
    85    44    81 1   
    86    44    82 1   
    87    44    83 1   
@<TRIPOS>SUBSTRUCTURE
     1 DM9         1 TEMP              0 ****  ****    0 ROOT
