@<TRIPOS>MOLECULE
DMB
   33    34     1     0     0
SMALL
No Charge or Current Charge


@<TRIPOS>ATOM
      1 C1           0.9600     0.2990    -2.1440 ca         1 DMB       0.075400
      2 C2          -0.0660     0.0890    -3.0980 ca         1 DMB      -0.065600
      3 C3           0.2810    -0.1240    -4.4510 ca         1 DMB      -0.108000
      4 C4           1.6260    -0.1130    -4.8550 ca         1 DMB      -0.116000
      5 C5           2.6390     0.1090    -3.9110 ca         1 DMB      -0.157000
      6 C6           2.3060     0.3120    -2.5610 ca         1 DMB      -0.104000
      7 C7           0.3240    -0.3760     1.2950 ca         1 DMB       0.078400
      8 C8           1.3650    -0.2650     2.2330 ca         1 DMB      -0.049000
      9 C9           1.0790    -0.0810     3.6000 ca         1 DMB      -0.152800
     10 C10         -0.2670    -0.0120     4.0240 ca         1 DMB       0.131100
     11 C11         -1.3200    -0.1260     3.0880 ca         1 DMB      -0.152800
     12 C12         -1.0130    -0.3090     1.7240 ca         1 DMB      -0.049000
     13 C           -1.5220     0.0780    -2.6960 c          1 DMB       0.719600
     14 CM3          2.2260     0.0390     4.6000 c3         1 DMB      -0.034800
     15 CM5         -2.7830    -0.0550     3.5210 c3         1 DMB      -0.034800
     16 N1           0.6690     0.4870    -0.7780 ne         1 DMB      -0.125400
     17 N2           0.6210    -0.5660    -0.0750 nf         1 DMB      -0.251400
     18 O           -2.1960    -0.8940    -3.0100 o          1 DMB      -0.710000
     19 OXT         -1.9920     1.0780    -2.1680 o          1 DMB      -0.710000
     20 O4          -0.5490     0.1650     5.3490 oh         1 DMB      -0.551100
     21 H3          -0.5000    -0.2930    -5.1890 ha         1 DMB       0.123000
     22 H4           1.8810    -0.2740    -5.9000 ha         1 DMB       0.088000
     23 H5           3.6810     0.1180    -4.2220 ha         1 DMB       0.088000
     24 H6           3.0970     0.4750    -1.8320 ha         1 DMB       0.108000
     25 H2           2.3960    -0.3210     1.8910 ha         1 DMB       0.142500
     26 H1          -1.8100    -0.3970     0.9900 ha         1 DMB       0.142500
     27 HM31         2.1920     1.0010     5.1240 hc         1 DMB       0.035700
     28 HM32         2.1750    -0.7560     5.3540 hc         1 DMB       0.035700
     29 HM33         3.2050    -0.0350     4.1110 hc         1 DMB       0.035700
     30 HM51        -3.0260    -0.8550     4.2310 hc         1 DMB       0.035700
     31 HM52        -3.0090     0.9060     3.9990 hc         1 DMB       0.035700
     32 HM53        -3.4650    -0.1610     2.6690 hc         1 DMB       0.035700
     33 HO4         -1.5230     0.1890     5.4530 ho         1 DMB       0.460000
@<TRIPOS>BOND
     1     1     2 ar  
     2     1     6 ar  
     3     1    16 1   
     4     2     3 ar  
     5     2    13 1   
     6     3     4 ar  
     7     3    21 1   
     8     4     5 ar  
     9     4    22 1   
    10     5     6 ar  
    11     5    23 1   
    12     6    24 1   
    13     7     8 ar  
    14     7    12 ar  
    15     7    17 1   
    16     8     9 ar  
    17     8    25 1   
    18     9    10 ar  
    19     9    14 1   
    20    10    11 ar  
    21    10    20 1   
    22    11    12 ar  
    23    11    15 1   
    24    12    26 1   
    25    13    18 1   
    26    13    19 1   
    27    14    27 1   
    28    14    28 1   
    29    14    29 1   
    30    15    30 1   
    31    15    31 1   
    32    15    32 1   
    33    16    17 2   
    34    20    33 1   
@<TRIPOS>SUBSTRUCTURE
     1 DMB         1 TEMP              0 ****  ****    0 ROOT
