@<TRIPOS>MOLECULE
DMB
   33    34     1     0     0
SMALL
bcc


@<TRIPOS>ATOM
      1 C1           0.7380     0.0520    -2.1650 ca         1 DMB       0.075400
      2 C2          -0.2210    -0.0180    -3.1810 ca         1 DMB      -0.065600
      3 C3           0.2120     0.0130    -4.5050 ca         1 DMB      -0.126000
      4 C4           1.5620     0.0790    -4.8180 ca         1 DMB      -0.134000
      5 C5           2.5070     0.1530    -3.8000 ca         1 DMB      -0.175000
      6 C6           2.0960     0.1480    -2.4790 ca         1 DMB      -0.122000
      7 C7           0.5810    -0.1310     1.3460 ca         1 DMB       0.078400
      8 C8           1.5260    -0.1880     2.3650 ca         1 DMB      -0.067000
      9 C9           1.1560    -0.1210     3.7000 ca         1 DMB      -0.152800
     10 C10         -0.2070    -0.0240     3.9990 ca         1 DMB       0.131100
     11 C11         -1.1830     0.0080     2.9900 ca         1 DMB      -0.152800
     12 C12         -0.7720    -0.0410     1.6700 ca         1 DMB      -0.067000
     13 C           -1.7090    -0.1650    -2.8920 c          1 DMB       0.930200
     14 CM3          2.1750    -0.1540     4.7990 c3         1 DMB      -0.034800
     15 CM5         -2.6390     0.0880     3.3490 c3         1 DMB      -0.034800
     16 N1           0.2600     0.1180    -0.8440 ne         1 DMB      -0.125400
     17 N2           1.0720    -0.2060     0.0330 nf         1 DMB      -0.251400
     18 O           -2.0330    -1.0320    -2.0620 o          1 DMB      -0.815300
     19 OXT         -2.4620     0.5770    -3.5500 o          1 DMB      -0.815300
     20 O4          -0.5360     0.0260     5.3040 oh         1 DMB      -0.512100
     21 H3          -0.5200    -0.0260    -5.3010 ha         1 DMB       0.141000
     22 H4           1.8760     0.0900    -5.8540 ha         1 DMB       0.106000
     23 H5           3.5610     0.2280    -4.0360 ha         1 DMB       0.106000
     24 H6           2.8230     0.2370    -1.6830 ha         1 DMB       0.126000
     25 H2           2.5740    -0.2760     2.1030 ha         1 DMB       0.160500
     26 H1          -1.5090    -0.0300     0.8760 ha         1 DMB       0.160500
     27 HM31         2.1310     0.7440     5.4180 hc         1 DMB       0.035700
     28 HM32         2.0280    -1.0070     5.4640 hc         1 DMB       0.035700
     29 HM33         3.1810    -0.2240     4.3890 hc         1 DMB       0.035700
     30 HM51        -2.9590    -0.7570     3.9640 hc         1 DMB       0.035700
     31 HM52        -2.8790     1.0030     3.8960 hc         1 DMB       0.035700
     32 HM53        -3.2560     0.0810     2.4540 hc         1 DMB       0.035700
     33 HO4         -1.4910     0.0910     5.4210 ho         1 DMB       0.421000
@<TRIPOS>BOND
     1     1     2 ar  
     2     1     6 ar  
     3     1    16 1   
     4     2     3 ar  
     5     2    13 1   
     6     3     4 ar  
     7     3    21 1   
     8     4     5 ar  
     9     4    22 1   
    10     5     6 ar  
    11     5    23 1   
    12     6    24 1   
    13     7     8 ar  
    14     7    12 ar  
    15     7    17 1   
    16     8     9 ar  
    17     8    25 1   
    18     9    10 ar  
    19     9    14 1   
    20    10    11 ar  
    21    10    20 1   
    22    11    12 ar  
    23    11    15 1   
    24    12    26 1   
    25    13    18 1   
    26    13    19 1   
    27    14    27 1   
    28    14    28 1   
    29    14    29 1   
    30    15    30 1   
    31    15    31 1   
    32    15    32 1   
    33    16    17 2   
    34    20    33 1   
@<TRIPOS>SUBSTRUCTURE
     1 DMB         1 TEMP              0 ****  ****    0 ROOT
