@<TRIPOS>MOLECULE
DMC
   36    36     1     0     0
SMALL
abcg2


@<TRIPOS>ATOM
      1 O           -0.8780     1.1150     4.8330 o          1 DMC      -0.723500
      2 C           -0.0270     0.2230     4.6390 c          1 DMC       0.700200
      3 CA           0.2640    -0.1880     3.1980 ce         1 DMC      -0.132400
      4 CB1         -0.4010     0.4170     2.2030 cf         1 DMC      -0.247200
      5 CB2          1.2810    -1.2680     2.9910 c3         1 DMC      -0.045900
      6 CG          -0.2170     0.2450     0.7590 ca         1 DMC      -0.133800
      7 CD1         -1.3210     0.1750    -0.1040 ca         1 DMC       0.174100
      8 CE1         -1.1730     0.0740    -1.4790 ca         1 DMC      -0.241000
      9 CZ           0.0980     0.0600    -2.0800 ca         1 DMC       0.352000
     10 CE2          1.2130     0.1320    -1.2190 ca         1 DMC      -0.236000
     11 CD2          1.0380     0.2180     0.1480 ca         1 DMC      -0.038000
     12 OH          -2.5900     0.1840     0.3620 oh         1 DMC      -0.562100
     13 N            0.2430    -0.0200    -3.4360 nh         1 DMC      -0.847400
     14 CH1          1.5460    -0.1330    -4.0580 c3         1 DMC       0.238300
     15 CH2         -0.8930     0.0470    -4.3340 c3         1 DMC       0.238300
     16 CM1          2.2150     1.2120    -4.3130 c3         1 DMC      -0.116100
     17 CM2         -1.5180    -1.3120    -4.6220 c3         1 DMC      -0.116100
     18 OXT          0.6250    -0.3740     5.5200 o          1 DMC      -0.723500
     19 HB1         -1.1490     1.1450     2.5130 ha         1 DMC       0.195000
     20 HB21         1.1140    -2.0870     3.6910 hc         1 DMC       0.027700
     21 HB22         1.2550    -1.6730     1.9800 hc         1 DMC       0.027700
     22 HB23         2.2970    -0.9100     3.1750 hc         1 DMC       0.027700
     23 HE1         -2.0730    -0.0150    -2.0720 ha         1 DMC       0.111000
     24 HE2          2.2210     0.1520    -1.6080 ha         1 DMC       0.098000
     25 HD2          1.9190     0.3070     0.7710 ha         1 DMC       0.113000
     26 HO          -2.5960     0.1360     1.3250 ho         1 DMC       0.487000
     27 HH11         1.4170    -0.6590    -5.0060 h1         1 DMC       0.038950
     28 HH12         2.1940    -0.7740    -3.4560 h1         1 DMC       0.038950
     29 HH21        -1.6440     0.7330    -3.9380 h1         1 DMC       0.038950
     30 HH22        -0.5520     0.4990    -5.2680 h1         1 DMC       0.038950
     31 HM11         3.1750     1.0730    -4.8120 hc         1 DMC       0.036367
     32 HM12         1.5930     1.8410    -4.9510 hc         1 DMC       0.036367
     33 HM13         2.3960     1.7500    -3.3820 hc         1 DMC       0.036367
     34 HM21        -2.3510    -1.2100    -5.3180 hc         1 DMC       0.036367
     35 HM22        -0.7890    -1.9900    -5.0680 hc         1 DMC       0.036367
     36 HM23        -1.8960    -1.7780    -3.7110 hc         1 DMC       0.036367
@<TRIPOS>BOND
     1     1     2 1   
     2     2     3 1   
     3     2    18 1   
     4     3     4 2   
     5     3     5 1   
     6     4     6 1   
     7     4    19 1   
     8     5    20 1   
     9     5    21 1   
    10     5    22 1   
    11     6     7 ar  
    12     6    11 ar  
    13     7     8 ar  
    14     7    12 1   
    15     8     9 ar  
    16     8    23 1   
    17     9    10 ar  
    18     9    13 1   
    19    10    11 ar  
    20    10    24 1   
    21    11    25 1   
    22    12    26 1   
    23    13    14 1   
    24    13    15 1   
    25    14    16 1   
    26    14    27 1   
    27    14    28 1   
    28    15    17 1   
    29    15    29 1   
    30    15    30 1   
    31    16    31 1   
    32    16    32 1   
    33    16    33 1   
    34    17    34 1   
    35    17    35 1   
    36    17    36 1   
@<TRIPOS>SUBSTRUCTURE
     1 DMC         1 TEMP              0 ****  ****    0 ROOT
