@<TRIPOS>MOLECULE
DMC
   36    36     1     0     0
SMALL
No Charge or Current Charge


@<TRIPOS>ATOM
      1 O           -1.0870     0.7850     5.0330 o          1 DMC      -0.723500
      2 C           -0.0810     0.1370     4.7800 c          1 DMC       0.700200
      3 CA           0.2710    -0.1290     3.3200 ce         1 DMC      -0.132400
      4 CB1         -0.5090     0.3380     2.2880 cf         1 DMC      -0.247200
      5 CB2          1.4970    -1.0060     3.0600 c3         1 DMC      -0.045900
      6 CG          -0.3200     0.2210     0.8230 ca         1 DMC      -0.133800
      7 CD1         -1.4000    -0.0880    -0.0290 ca         1 DMC       0.174100
      8 CE1         -1.2220    -0.1570    -1.4160 ca         1 DMC      -0.241000
      9 CZ           0.0380     0.0800    -1.9950 ca         1 DMC       0.352000
     10 CE2          1.1150     0.3930    -1.1440 ca         1 DMC      -0.236000
     11 CD2          0.9400     0.4670     0.2480 ca         1 DMC      -0.038000
     12 OH          -2.6300    -0.3600     0.4890 oh         1 DMC      -0.562100
     13 N            0.2190     0.0080    -3.4030 nh         1 DMC      -0.847400
     14 CH1          1.5160    -0.3970    -3.9970 c3         1 DMC       0.238300
     15 CH2         -0.8800     0.3330    -4.3440 c3         1 DMC       0.238300
     16 CM1          2.3610     0.7820    -4.5180 c3         1 DMC      -0.116100
     17 CM2         -1.5820    -0.9040    -4.9380 c3         1 DMC      -0.116100
     18 OXT          0.6540    -0.2910     5.6590 o          1 DMC      -0.723500
     19 HB1         -1.3840     0.9320     2.5630 ha         1 DMC       0.195000
     20 HB21         1.6030    -1.7990     3.8090 hc         1 DMC       0.027700
     21 HB22         1.4400    -1.5140     2.0900 hc         1 DMC       0.027700
     22 HB23         2.4170    -0.4110     3.0720 hc         1 DMC       0.027700
     23 HE1         -2.0730    -0.4150    -2.0370 ha         1 DMC       0.111000
     24 HE2          2.0980     0.6000    -1.5520 ha         1 DMC       0.098000
     25 HD2          1.7850     0.7370     0.8770 ha         1 DMC       0.113000
     26 HO          -2.5230    -0.4350     1.4610 ho         1 DMC       0.487000
     27 HH11         1.3400    -1.0910    -4.8300 h1         1 DMC       0.038950
     28 HH12         2.1080    -0.9580    -3.2610 h1         1 DMC       0.038950
     29 HH21        -1.6310     0.9590    -3.8430 h1         1 DMC       0.038950
     30 HH22        -0.4900     0.9400    -5.1730 h1         1 DMC       0.038950
     31 HM11         3.3170     0.4160    -4.9100 hc         1 DMC       0.036367
     32 HM12         1.8410     1.3090    -5.3260 hc         1 DMC       0.036367
     33 HM13         2.5710     1.4990    -3.7160 hc         1 DMC       0.036367
     34 HM21        -2.4020    -0.5920    -5.5940 hc         1 DMC       0.036367
     35 HM22        -0.8820    -1.5050    -5.5290 hc         1 DMC       0.036367
     36 HM23        -1.9980    -1.5370    -4.1460 hc         1 DMC       0.036367
@<TRIPOS>BOND
     1     1     2 1   
     2     2     3 1   
     3     2    18 1   
     4     3     4 2   
     5     3     5 1   
     6     4     6 1   
     7     4    19 1   
     8     5    20 1   
     9     5    21 1   
    10     5    22 1   
    11     6     7 ar  
    12     6    11 ar  
    13     7     8 ar  
    14     7    12 1   
    15     8     9 ar  
    16     8    23 1   
    17     9    10 ar  
    18     9    13 1   
    19    10    11 ar  
    20    10    24 1   
    21    11    25 1   
    22    12    26 1   
    23    13    14 1   
    24    13    15 1   
    25    14    16 1   
    26    14    27 1   
    27    14    28 1   
    28    15    17 1   
    29    15    29 1   
    30    15    30 1   
    31    16    31 1   
    32    16    32 1   
    33    16    33 1   
    34    17    34 1   
    35    17    35 1   
    36    17    36 1   
@<TRIPOS>SUBSTRUCTURE
     1 DMC         1 TEMP              0 ****  ****    0 ROOT
