@<TRIPOS>MOLECULE
DMD
   21    22     1     0     0
SMALL
No Charge or Current Charge


@<TRIPOS>ATOM
      1 N3           1.0930    -0.0440    -2.2360 na         1 DMD      -0.318600
      2 N1          -1.2070     0.0850    -2.2420 nc         1 DMD      -0.573100
      3 C2          -0.0860     0.0230    -2.9930 cd         1 DMD       0.412700
      4 C7A         -0.7080     0.0560    -0.9520 ca         1 DMD       0.065400
      5 C3A          0.6520    -0.0200    -0.9440 ca         1 DMD      -0.082200
      6 C4           1.3980    -0.0630     0.2390 ca         1 DMD      -0.115000
      7 C5           0.7060    -0.0260     1.4700 ca         1 DMD      -0.055300
      8 C6          -0.7170     0.0540     1.4780 ca         1 DMD      -0.098300
      9 C7          -1.4250     0.0950     0.2520 ca         1 DMD      -0.047000
     10 C8           1.5000    -0.0720     2.7720 c3         1 DMD      -0.046800
     11 C9          -1.4970     0.0970     2.7890 c3         1 DMD      -0.042800
     12 HN31         2.0410    -0.0970    -2.5870 hn         1 DMD       0.356000
     13 H21         -0.0530     0.0220    -4.0770 h5         1 DMD       0.059800
     14 H41          2.4830    -0.1240     0.2050 ha         1 DMD       0.114000
     15 H71         -2.5100     0.1560     0.2350 ha         1 DMD       0.127000
     16 H81          1.3220     0.8260     3.3750 hc         1 DMD       0.041033
     17 H82          1.2220    -0.9450     3.3740 hc         1 DMD       0.041033
     18 H83          2.5800    -0.1320     2.5880 hc         1 DMD       0.041033
     19 H91         -1.3110    -0.8030     3.3880 hc         1 DMD       0.039700
     20 H92         -1.2120     0.9680     3.3900 hc         1 DMD       0.039700
     21 H93         -2.5780     0.1580     2.6180 hc         1 DMD       0.039700
@<TRIPOS>BOND
     1     1     3 1   
     2     1     5 1   
     3     1    12 1   
     4     2     3 2   
     5     2     4 1   
     6     3    13 1   
     7     4     5 ar  
     8     4     9 ar  
     9     5     6 ar  
    10     6     7 ar  
    11     6    14 1   
    12     7     8 ar  
    13     7    10 1   
    14     8     9 ar  
    15     8    11 1   
    16     9    15 1   
    17    10    16 1   
    18    10    17 1   
    19    10    18 1   
    20    11    19 1   
    21    11    20 1   
    22    11    21 1   
@<TRIPOS>SUBSTRUCTURE
     1 DMD         1 TEMP              0 ****  ****    0 ROOT
