@<TRIPOS>MOLECULE
DMD
   21    22     1     0     0
SMALL
bcc


@<TRIPOS>ATOM
      1 N3           1.0520    -0.0370    -2.2440 na         1 DMD      -0.268300
      2 N1          -1.1670     0.0780    -2.2420 nc         1 DMD      -0.573100
      3 C2          -0.0890     0.0210    -2.9720 cd         1 DMD       0.412700
      4 C7A         -0.7110     0.0540    -0.9430 ca         1 DMD       0.065400
      5 C3A          0.6870    -0.0190    -0.9240 ca         1 DMD      -0.082200
      6 C4           1.4110    -0.0590     0.2620 ca         1 DMD      -0.133000
      7 C5           0.7070    -0.0240     1.4560 ca         1 DMD      -0.055300
      8 C6          -0.7100     0.0550     1.4570 ca         1 DMD      -0.098300
      9 C7          -1.4110     0.0910     0.2630 ca         1 DMD      -0.065000
     10 C8           1.4540    -0.0800     2.7570 c3         1 DMD      -0.046800
     11 C9          -1.4530     0.1050     2.7610 c3         1 DMD      -0.042800
     12 HN31         1.9870    -0.0930    -2.6160 hn         1 DMD       0.305700
     13 H21         -0.0660     0.0210    -4.0510 h5         1 DMD       0.059800
     14 H41          2.4920    -0.1160     0.2620 ha         1 DMD       0.132000
     15 H71         -2.4930     0.1480     0.2660 ha         1 DMD       0.145000
     16 H81          1.2470     0.7890     3.3850 hc         1 DMD       0.041033
     17 H82          1.1790    -0.9620     3.3410 hc         1 DMD       0.041033
     18 H83          2.5300    -0.1170     2.5920 hc         1 DMD       0.041033
     19 H91         -1.2460    -0.7670     3.3850 hc         1 DMD       0.039700
     20 H92         -1.1790     0.9840     3.3490 hc         1 DMD       0.039700
     21 H93         -2.5290     0.1430     2.5970 hc         1 DMD       0.039700
@<TRIPOS>BOND
     1     1     3 1   
     2     1     5 1   
     3     1    12 1   
     4     2     3 2   
     5     2     4 1   
     6     3    13 1   
     7     4     5 ar  
     8     4     9 ar  
     9     5     6 ar  
    10     6     7 ar  
    11     6    14 1   
    12     7     8 ar  
    13     7    10 1   
    14     8     9 ar  
    15     8    11 1   
    16     9    15 1   
    17    10    16 1   
    18    10    17 1   
    19    10    18 1   
    20    11    19 1   
    21    11    20 1   
    22    11    21 1   
@<TRIPOS>SUBSTRUCTURE
     1 DMD         1 TEMP              0 ****  ****    0 ROOT
