@<TRIPOS>MOLECULE
DME
   56    55     1     0     0
SMALL
No Charge or Current Charge


@<TRIPOS>ATOM
      1 N1          -7.1500     0.0650    -0.0140 n4         1 DME      -0.495500
      2 C2          -5.7730    -0.6180    -0.0110 c3         1 DME       0.099600
      3 C3          -4.5240     0.2900    -0.0120 c3         1 DME      -0.098900
      4 C4          -3.2110    -0.5210    -0.0090 c3         1 DME      -0.074400
      5 C5          -1.9510     0.3720    -0.0100 c3         1 DME      -0.073400
      6 C6          -0.6360    -0.4380    -0.0070 c3         1 DME      -0.073400
      7 C7           0.6240     0.4550    -0.0080 c3         1 DME      -0.073400
      8 C8           1.9390    -0.3550    -0.0040 c3         1 DME      -0.073400
      9 C9           3.1990     0.5380    -0.0060 c3         1 DME      -0.074400
     10 C10          4.5120    -0.2730    -0.0020 c3         1 DME      -0.098900
     11 C11          5.7610     0.6340    -0.0040 c3         1 DME       0.099600
     12 N12          7.1380    -0.0480    -0.0010 n4         1 DME      -0.495500
     13 C13         -7.3180     0.9330    -1.2710 c3         1 DME       0.074233
     14 C14         -7.3200     0.9380     1.2400 c3         1 DME       0.074233
     15 C15         -8.2370    -1.0190    -0.0120 c3         1 DME       0.074233
     16 C16          7.3080    -0.9230    -1.2530 c3         1 DME       0.074233
     17 C17          8.2250     1.0360    -0.0030 c3         1 DME       0.074233
     18 C18          7.3060    -0.9150     1.2570 c3         1 DME       0.074233
     19 H21         -5.7300    -1.2600     0.8720 hx         1 DME       0.093700
     20 H22         -5.7290    -1.2640    -0.8910 hx         1 DME       0.093700
     21 H31         -4.5430     0.9380    -0.8960 hc         1 DME       0.064450
     22 H32         -4.5450     0.9420     0.8690 hc         1 DME       0.064450
     23 H41         -3.1910    -1.1720     0.8750 hc         1 DME       0.053200
     24 H42         -3.1900    -1.1760    -0.8890 hc         1 DME       0.053200
     25 H51         -1.9710     1.0230    -0.8930 hc         1 DME       0.046950
     26 H52         -1.9720     1.0270     0.8700 hc         1 DME       0.046950
     27 H61         -0.6160    -1.0880     0.8770 hc         1 DME       0.045700
     28 H62         -0.6140    -1.0930    -0.8870 hc         1 DME       0.045700
     29 H71          0.6040     1.1050    -0.8910 hc         1 DME       0.045700
     30 H72          0.6020     1.1100     0.8720 hc         1 DME       0.045700
     31 H81          1.9590    -1.0060     0.8790 hc         1 DME       0.046950
     32 H82          1.9600    -1.0110    -0.8840 hc         1 DME       0.046950
     33 H91          3.1790     1.1880    -0.8900 hc         1 DME       0.053200
     34 H92          3.1780     1.1930     0.8740 hc         1 DME       0.053200
     35 H101         4.5310    -0.9200     0.8820 hc         1 DME       0.064450
     36 H102         4.5330    -0.9250    -0.8830 hc         1 DME       0.064450
     37 H111         5.7180     1.2760    -0.8870 hx         1 DME       0.093700
     38 H112         5.7170     1.2810     0.8760 hx         1 DME       0.093700
     39 H131        -6.5690     1.7280    -1.2650 hx         1 DME       0.098589
     40 H132        -7.1870     0.3120    -2.1590 hx         1 DME       0.098589
     41 H133        -8.3170     1.3740    -1.2740 hx         1 DME       0.098589
     42 H141        -8.3190     1.3790     1.2400 hx         1 DME       0.098589
     43 H142        -7.1910     0.3200     2.1310 hx         1 DME       0.098589
     44 H143        -6.5720     1.7330     1.2330 hx         1 DME       0.098589
     45 H151        -8.1290    -1.6400    -0.9040 hx         1 DME       0.098589
     46 H152        -8.1300    -1.6370     0.8810 hx         1 DME       0.098589
     47 H153        -9.2210    -0.5450    -0.0140 hx         1 DME       0.098589
     48 H161         7.1790    -0.3050    -2.1440 hx         1 DME       0.098589
     49 H162         8.3070    -1.3630    -1.2530 hx         1 DME       0.098589
     50 H163         6.5600    -1.7170    -1.2450 hx         1 DME       0.098589
     51 H171         8.1170     1.6580     0.8880 hx         1 DME       0.098589
     52 H172         9.2090     0.5610    -0.0010 hx         1 DME       0.098589
     53 H173         8.1180     1.6530    -0.8970 hx         1 DME       0.098589
     54 H181         6.5570    -1.7100     1.2520 hx         1 DME       0.098589
     55 H182         8.3050    -1.3560     1.2610 hx         1 DME       0.098589
     56 H183         7.1760    -0.2930     2.1450 hx         1 DME       0.098589
@<TRIPOS>BOND
     1     1     2 1   
     2     1    13 1   
     3     1    14 1   
     4     1    15 1   
     5     2     3 1   
     6     2    19 1   
     7     2    20 1   
     8     3     4 1   
     9     3    21 1   
    10     3    22 1   
    11     4     5 1   
    12     4    23 1   
    13     4    24 1   
    14     5     6 1   
    15     5    25 1   
    16     5    26 1   
    17     6     7 1   
    18     6    27 1   
    19     6    28 1   
    20     7     8 1   
    21     7    29 1   
    22     7    30 1   
    23     8     9 1   
    24     8    31 1   
    25     8    32 1   
    26     9    10 1   
    27     9    33 1   
    28     9    34 1   
    29    10    11 1   
    30    10    35 1   
    31    10    36 1   
    32    11    12 1   
    33    11    37 1   
    34    11    38 1   
    35    12    16 1   
    36    12    17 1   
    37    12    18 1   
    38    13    39 1   
    39    13    40 1   
    40    13    41 1   
    41    14    42 1   
    42    14    43 1   
    43    14    44 1   
    44    15    45 1   
    45    15    46 1   
    46    15    47 1   
    47    16    48 1   
    48    16    49 1   
    49    16    50 1   
    50    17    51 1   
    51    17    52 1   
    52    17    53 1   
    53    18    54 1   
    54    18    55 1   
    55    18    56 1   
@<TRIPOS>SUBSTRUCTURE
     1 DME         1 TEMP              0 ****  ****    0 ROOT
