@<TRIPOS>MOLECULE
DME
   56    55     1     0     0
SMALL
abcg2


@<TRIPOS>ATOM
      1 N1          -7.0030     0.0800    -0.0130 n4         1 DME      -0.495500
      2 C2          -5.6580    -0.6020    -0.0130 c3         1 DME       0.099600
      3 C3          -4.4530     0.3180    -0.0190 c3         1 DME      -0.098900
      4 C4          -3.1710    -0.5110    -0.0100 c3         1 DME      -0.074400
      5 C5          -1.9220     0.3620    -0.0170 c3         1 DME      -0.073400
      6 C6          -0.6310    -0.4460    -0.0060 c3         1 DME      -0.073400
      7 C7           0.6170     0.4280    -0.0090 c3         1 DME      -0.073400
      8 C8           1.9100    -0.3770    -0.0010 c3         1 DME      -0.073400
      9 C9           3.1540     0.5030    -0.0020 c3         1 DME      -0.074400
     10 C10          4.4430    -0.3160     0.0020 c3         1 DME      -0.098900
     11 C11          5.6380     0.6180     0.0020 c3         1 DME       0.099600
     12 N12          6.9910    -0.0460    -0.0000 n4         1 DME      -0.495500
     13 C13         -7.1730     0.9210    -1.2280 c3         1 DME       0.074233
     14 C14         -7.1750     0.9190     1.2040 c3         1 DME       0.074233
     15 C15         -8.0510    -0.9770    -0.0140 c3         1 DME       0.074233
     16 C16          7.1700    -0.8880    -1.2140 c3         1 DME       0.074233
     17 C17          8.0240     1.0270    -0.0070 c3         1 DME       0.074233
     18 C18          7.1790    -0.8790     1.2180 c3         1 DME       0.074233
     19 H21         -5.6440    -1.2420     0.8700 hx         1 DME       0.093700
     20 H22         -5.6480    -1.2470    -0.8930 hx         1 DME       0.093700
     21 H31         -4.4540     0.9580    -0.9040 hc         1 DME       0.064450
     22 H32         -4.4560     0.9730     0.8560 hc         1 DME       0.064450
     23 H41         -3.1580    -1.1580     0.8730 hc         1 DME       0.053200
     24 H42         -3.1570    -1.1750    -0.8800 hc         1 DME       0.053200
     25 H51         -1.9390     1.0110    -0.9000 hc         1 DME       0.046950
     26 H52         -1.9420     1.0290     0.8520 hc         1 DME       0.046950
     27 H61         -0.6170    -1.0980     0.8750 hc         1 DME       0.045700
     28 H62         -0.6110    -1.1110    -0.8770 hc         1 DME       0.045700
     29 H71          0.6010     1.0810    -0.8890 hc         1 DME       0.045700
     30 H72          0.5970     1.0920     0.8620 hc         1 DME       0.045700
     31 H81          1.9280    -1.0310     0.8770 hc         1 DME       0.046950
     32 H82          1.9330    -1.0380    -0.8750 hc         1 DME       0.046950
     33 H91          3.1380     1.1560    -0.8800 hc         1 DME       0.053200
     34 H92          3.1350     1.1610     0.8730 hc         1 DME       0.053200
     35 H101         4.4500    -0.9620     0.8830 hc         1 DME       0.064450
     36 H102         4.4530    -0.9640    -0.8770 hc         1 DME       0.064450
     37 H111         5.6170     1.2610    -0.8780 hx         1 DME       0.093700
     38 H112         5.6190     1.2590     0.8840 hx         1 DME       0.093700
     39 H131        -6.4680     1.7460    -1.2130 hx         1 DME       0.098589
     40 H132        -7.0090     0.3090    -2.1110 hx         1 DME       0.098589
     41 H133        -8.1850     1.3170    -1.2420 hx         1 DME       0.098589
     42 H141        -8.1830     1.3230     1.2120 hx         1 DME       0.098589
     43 H142        -7.0240     0.3010     2.0860 hx         1 DME       0.098589
     44 H143        -6.4620     1.7370     1.1980 hx         1 DME       0.098589
     45 H151        -7.9420    -1.5880    -0.9060 hx         1 DME       0.098589
     46 H152        -7.9340    -1.5970     0.8710 hx         1 DME       0.098589
     47 H153        -9.0300    -0.5070    -0.0070 hx         1 DME       0.098589
     48 H161         6.9960    -0.2790    -2.0980 hx         1 DME       0.098589
     49 H162         8.1870    -1.2700    -1.2300 hx         1 DME       0.098589
     50 H163         6.4750    -1.7220    -1.1950 hx         1 DME       0.098589
     51 H171         7.9030     1.6440     0.8790 hx         1 DME       0.098589
     52 H172         9.0110     0.5710    -0.0060 hx         1 DME       0.098589
     53 H173         7.9010     1.6360    -0.8990 hx         1 DME       0.098589
     54 H181         6.4760    -1.7060     1.2170 hx         1 DME       0.098589
     55 H182         8.1920    -1.2720     1.2230 hx         1 DME       0.098589
     56 H183         7.0240    -0.2610     2.0990 hx         1 DME       0.098589
@<TRIPOS>BOND
     1     1     2 1   
     2     1    13 1   
     3     1    14 1   
     4     1    15 1   
     5     2     3 1   
     6     2    19 1   
     7     2    20 1   
     8     3     4 1   
     9     3    21 1   
    10     3    22 1   
    11     4     5 1   
    12     4    23 1   
    13     4    24 1   
    14     5     6 1   
    15     5    25 1   
    16     5    26 1   
    17     6     7 1   
    18     6    27 1   
    19     6    28 1   
    20     7     8 1   
    21     7    29 1   
    22     7    30 1   
    23     8     9 1   
    24     8    31 1   
    25     8    32 1   
    26     9    10 1   
    27     9    33 1   
    28     9    34 1   
    29    10    11 1   
    30    10    35 1   
    31    10    36 1   
    32    11    12 1   
    33    11    37 1   
    34    11    38 1   
    35    12    16 1   
    36    12    17 1   
    37    12    18 1   
    38    13    39 1   
    39    13    40 1   
    40    13    41 1   
    41    14    42 1   
    42    14    43 1   
    43    14    44 1   
    44    15    45 1   
    45    15    46 1   
    46    15    47 1   
    47    16    48 1   
    48    16    49 1   
    49    16    50 1   
    50    17    51 1   
    51    17    52 1   
    52    17    53 1   
    53    18    54 1   
    54    18    55 1   
    55    18    56 1   
@<TRIPOS>SUBSTRUCTURE
     1 DME         1 TEMP              0 ****  ****    0 ROOT
