@<TRIPOS>MOLECULE
DMF
   12    11     1     0     0
SMALL
bcc


@<TRIPOS>ATOM
      1 C1          11.7900    46.8350     3.4610 c3         1 DMF       0.084300
      2 C2          12.4420    48.8640     4.6800 c3         1 DMF       0.084300
      3 C           10.2330    48.6950     3.6880 c          1 DMF       0.670900
      4 O            9.3130    48.1630     3.0890 o          1 DMF      -0.601100
      5 N           11.4400    48.1600     3.9170 n          1 DMF      -0.488800
      6 H11         11.0060    46.4380     2.8240 h1         1 DMF       0.040867
      7 H12         12.7210    46.8680     2.8920 h1         1 DMF       0.040867
      8 H13         11.9330    46.1590     4.3070 h1         1 DMF       0.040867
      9 H21         12.0770    49.8510     4.9610 h1         1 DMF       0.040867
     10 H22         12.6930    48.3190     5.5920 h1         1 DMF       0.040867
     11 H23         13.3550    48.9890     4.0960 h1         1 DMF       0.040867
     12 HC          10.1470    49.7100     4.1080 h5         1 DMF       0.005200
@<TRIPOS>BOND
     1     1     5 1   
     2     1     6 1   
     3     1     7 1   
     4     1     8 1   
     5     2     5 1   
     6     2     9 1   
     7     2    10 1   
     8     2    11 1   
     9     3     4 2   
    10     3     5 1   
    11     3    12 1   
@<TRIPOS>SUBSTRUCTURE
     1 DMF         1 TEMP              0 ****  ****    0 ROOT
