@<TRIPOS>MOLECULE
DMF
   12    11     1     0     0
SMALL
No Charge or Current Charge


@<TRIPOS>ATOM
      1 C1          11.8020    46.8190     3.4010 c3         1 DMF       0.084300
      2 C2          12.5210    48.9630     4.5540 c3         1 DMF       0.084300
      3 C           10.1220    48.6060     3.9420 c          1 DMF       0.603900
      4 O            9.1990    47.9580     3.4610 o          1 DMF      -0.601100
      5 N           11.4490    48.1410     3.9580 n          1 DMF      -0.421800
      6 H11         11.6170    46.8110     2.3200 h1         1 DMF       0.040867
      7 H12         12.8620    46.5970     3.5830 h1         1 DMF       0.040867
      8 H13         11.1920    46.0400     3.8770 h1         1 DMF       0.040867
      9 H21         12.2290    50.0210     4.5660 h1         1 DMF       0.040867
     10 H22         12.7100    48.6300     5.5830 h1         1 DMF       0.040867
     11 H23         13.4430    48.8590     3.9670 h1         1 DMF       0.040867
     12 HC          10.0030    49.6050     4.4030 h5         1 DMF       0.005200
@<TRIPOS>BOND
     1     1     5 1   
     2     1     6 1   
     3     1     7 1   
     4     1     8 1   
     5     2     5 1   
     6     2     9 1   
     7     2    10 1   
     8     2    11 1   
     9     3     4 2   
    10     3     5 1   
    11     3    12 1   
@<TRIPOS>SUBSTRUCTURE
     1 DMF         1 TEMP              0 ****  ****    0 ROOT
