@<TRIPOS>MOLECULE
DMG
   15    14     1     0     0
SMALL
No Charge or Current Charge


@<TRIPOS>ATOM
      1 OXT          0.1080    -0.8450    -2.0040 o          1 DMG      -0.732500
      2 O            0.0900     1.3000    -1.8160 o          1 DMG      -0.732500
      3 C           -0.1430     0.1780    -1.3790 c          1 DMG       0.719000
      4 CA          -0.8130     0.0480     0.0380 c3         1 DMG       0.020800
      5 N            0.0520     0.1800     1.2580 n3         1 DMG      -0.676600
      6 C4          -0.7340     0.1830     2.5100 c3         1 DMG       0.161100
      7 C5           1.1580    -0.8020     1.2920 c3         1 DMG       0.161100
      8 HA1         -1.3250    -0.9240     0.0660 h1         1 DMG       0.009700
      9 HA2         -1.6030     0.8100     0.0790 h1         1 DMG       0.009700
     10 H41         -0.0820     0.3620     3.3760 h1         1 DMG       0.010200
     11 H42         -1.4940     0.9750     2.4880 h1         1 DMG       0.010200
     12 H43         -1.2420    -0.7800     2.6530 h1         1 DMG       0.010200
     13 H51          1.7920    -0.7060     0.4010 h1         1 DMG       0.010200
     14 H52          1.7920    -0.6390     2.1740 h1         1 DMG       0.010200
     15 H53          0.7670    -1.8270     1.3330 h1         1 DMG       0.010200
@<TRIPOS>BOND
     1     1     3 1   
     2     2     3 1   
     3     3     4 1   
     4     4     5 1   
     5     4     8 1   
     6     4     9 1   
     7     5     6 1   
     8     5     7 1   
     9     6    10 1   
    10     6    11 1   
    11     6    12 1   
    12     7    13 1   
    13     7    14 1   
    14     7    15 1   
@<TRIPOS>SUBSTRUCTURE
     1 DMG         1 TEMP              0 ****  ****    0 ROOT
