@<TRIPOS>MOLECULE
DMG
   15    14     1     0     0
SMALL
abcg2


@<TRIPOS>ATOM
      1 OXT         -0.7200    -0.3940    -2.2870 o          1 DMG      -0.732500
      2 O            0.8150     0.9460    -1.3840 o          1 DMG      -0.732500
      3 C           -0.1540     0.1690    -1.3260 c          1 DMG       0.719000
      4 CA          -0.7890    -0.1110     0.0520 c3         1 DMG       0.020800
      5 N            0.0310     0.2080     1.2000 n3         1 DMG      -0.676600
      6 C4          -0.7480     0.1920     2.4180 c3         1 DMG       0.161100
      7 C5           1.1640    -0.6820     1.3110 c3         1 DMG       0.161100
      8 HA1         -1.1390    -1.1590     0.0760 h1         1 DMG       0.009700
      9 HA2         -1.6960     0.5030     0.1040 h1         1 DMG       0.009700
     10 H41         -0.1260     0.4870     3.2660 h1         1 DMG       0.010200
     11 H42         -1.5730     0.9030     2.3490 h1         1 DMG       0.010200
     12 H43         -1.1780    -0.7950     2.6540 h1         1 DMG       0.010200
     13 H51          1.7840    -0.6220     0.4190 h1         1 DMG       0.010200
     14 H52          1.7830    -0.3970     2.1640 h1         1 DMG       0.010200
     15 H53          0.8700    -1.7360     1.4540 h1         1 DMG       0.010200
@<TRIPOS>BOND
     1     1     3 1   
     2     2     3 1   
     3     3     4 1   
     4     4     5 1   
     5     4     8 1   
     6     4     9 1   
     7     5     6 1   
     8     5     7 1   
     9     6    10 1   
    10     6    11 1   
    11     6    12 1   
    12     7    13 1   
    13     7    14 1   
    14     7    15 1   
@<TRIPOS>SUBSTRUCTURE
     1 DMG         1 TEMP              0 ****  ****    0 ROOT
