@<TRIPOS>MOLECULE
DMH
   22    21     1     0     0
SMALL
No Charge or Current Charge


@<TRIPOS>ATOM
      1 N           38.2060    22.4460    82.1550 n8         1 DMH      -0.900800
      2 CA          38.3620    21.0260    81.6650 c3         1 DMH       0.032500
      3 CB          39.2880    20.2380    82.6360 c3         1 DMH      -0.125400
      4 CG          40.7840    20.6180    82.6370 c          1 DMH       0.668100
      5 OD1         41.2430    21.4210    81.8320 o          1 DMH      -0.633100
      6 ND2         41.6390    20.0090    83.5880 n          1 DMH      -0.497800
      7 CE1         41.1520    18.9820    84.5400 c3         1 DMH       0.103800
      8 CE2         43.0770    20.3590    83.6290 c3         1 DMH       0.103800
      9 C           37.0180    20.2260    81.3380 c          1 DMH       0.928600
     10 O           36.5220    20.3540    80.2220 o          1 DMH      -0.837300
     11 OXT         36.5130    19.5070    82.1970 o          1 DMH      -0.837300
     12 H2          37.6770    22.9840    81.4600 hn         1 DMH       0.336300
     13 H           39.1290    22.8940    82.1700 hn         1 DMH       0.336300
     14 HA1         38.8890    21.0930    80.7040 h1         1 DMH       0.015700
     15 HB2         38.9090    20.2570    83.6640 hc         1 DMH       0.067700
     16 HB3         39.2490    19.1650    82.4180 hc         1 DMH       0.067700
     17 HE11        41.9870    18.5590    85.1130 h1         1 DMH       0.028700
     18 HE12        40.4400    19.4340    85.2410 h1         1 DMH       0.028700
     19 HE13        40.6610    18.1670    83.9940 h1         1 DMH       0.028700
     20 HE21        43.5650    19.9060    84.5010 h1         1 DMH       0.028700
     21 HE22        43.5700    19.9970    82.7180 h1         1 DMH       0.028700
     22 HE23        43.1930    21.4490    83.6930 h1         1 DMH       0.028700
@<TRIPOS>BOND
     1     1     2 1   
     2     1    12 1   
     3     1    13 1   
     4     2     3 1   
     5     2     9 1   
     6     2    14 1   
     7     3     4 1   
     8     3    15 1   
     9     3    16 1   
    10     4     5 2   
    11     4     6 1   
    12     6     7 1   
    13     6     8 1   
    14     7    17 1   
    15     7    18 1   
    16     7    19 1   
    17     8    20 1   
    18     8    21 1   
    19     8    22 1   
    20     9    10 1   
    21     9    11 1   
@<TRIPOS>SUBSTRUCTURE
     1 DMH         1 TEMP              0 ****  ****    0 ROOT
