@<TRIPOS>MOLECULE
DMH
   22    21     1     0     0
SMALL
bcc


@<TRIPOS>ATOM
      1 N           38.4450    22.3380    82.0090 n8         1 DMH      -0.900800
      2 CA          38.5100    20.9420    81.6050 c3         1 DMH       0.032500
      3 CB          39.3460    20.1500    82.6010 c3         1 DMH      -0.125400
      4 CG          40.8060    20.5540    82.6230 c          1 DMH       0.668100
      5 OD1         41.2940    21.2940    81.7750 o          1 DMH      -0.633100
      6 ND2         41.5620    20.0430    83.6190 n          1 DMH      -0.497800
      7 CE1         41.0370    19.0930    84.5820 c3         1 DMH       0.103800
      8 CE2         42.9690    20.3970    83.6620 c3         1 DMH       0.103800
      9 C           37.0890    20.3340    81.4600 c          1 DMH       0.928600
     10 O           36.1390    21.1360    81.3710 o          1 DMH      -0.837300
     11 OXT         37.0240    19.0900    81.3970 o          1 DMH      -0.837300
     12 H2          37.6490    22.7600    81.5490 hn         1 DMH       0.336300
     13 H           39.2710    22.8230    81.6890 hn         1 DMH       0.336300
     14 HA1         38.9710    20.8190    80.6110 h1         1 DMH       0.015700
     15 HB2         38.9130    20.2670    83.5990 hc         1 DMH       0.067700
     16 HB3         39.2860    19.0830    82.3690 hc         1 DMH       0.067700
     17 HE11        41.8490    18.7420    85.2120 h1         1 DMH       0.028700
     18 HE12        40.2820    19.5390    85.2320 h1         1 DMH       0.028700
     19 HE13        40.5970    18.2200    84.0990 h1         1 DMH       0.028700
     20 HE21        43.3970    20.0420    84.5950 h1         1 DMH       0.028700
     21 HE22        43.5310    19.9510    82.8380 h1         1 DMH       0.028700
     22 HE23        43.1070    21.4770    83.6180 h1         1 DMH       0.028700
@<TRIPOS>BOND
     1     1     2 1   
     2     1    12 1   
     3     1    13 1   
     4     2     3 1   
     5     2     9 1   
     6     2    14 1   
     7     3     4 1   
     8     3    15 1   
     9     3    16 1   
    10     4     5 2   
    11     4     6 1   
    12     6     7 1   
    13     6     8 1   
    14     7    17 1   
    15     7    18 1   
    16     7    19 1   
    17     8    20 1   
    18     8    21 1   
    19     8    22 1   
    20     9    10 1   
    21     9    11 1   
@<TRIPOS>SUBSTRUCTURE
     1 DMH         1 TEMP              0 ****  ****    0 ROOT
