@<TRIPOS>MOLECULE
DMI
   16    16     1     0     0
SMALL
abcg2


@<TRIPOS>ATOM
      1 N1          -1.0000    -1.0350     0.0920 na         1 DMI      -0.124700
      2 C2           0.2770    -0.6750     0.0820 cc         1 DMI      -0.023600
      3 CM2          1.4480    -1.5710     0.1600 c3         1 DMI      -0.060800
      4 N3           0.3080     0.6510    -0.0140 na         1 DMI       0.061000
      5 CM3          1.5190     1.4500    -0.0660 c3         1 DMI       0.037900
      6 C4          -0.9770     1.1350    -0.0670 cc         1 DMI      -0.149000
      7 C5          -1.8040     0.0680     0.0010 cd         1 DMI      -0.142000
      8 HN1         -1.3230    -1.9890     0.1640 hn         1 DMI       0.409000
      9 HM21         2.0990    -1.4310    -0.7030 hc         1 DMI       0.098033
     10 HM22         2.0300    -1.3690     1.0600 hc         1 DMI       0.098033
     11 HM23         1.1290    -2.6090     0.1850 hc         1 DMI       0.098033
     12 HM31         1.2410     2.4980    -0.0960 h1         1 DMI       0.091367
     13 HM32         2.1260     1.2720     0.8190 h1         1 DMI       0.091367
     14 HM33         2.0910     1.2100    -0.9580 h1         1 DMI       0.091367
     15 H4          -1.1900     2.1860    -0.1480 h4         1 DMI       0.211000
     16 H5          -2.8770     0.0030    -0.0100 h4         1 DMI       0.213000
@<TRIPOS>BOND
     1     1     2 2   
     2     1     7 1   
     3     1     8 1   
     4     2     3 1   
     5     2     4 1   
     6     3     9 1   
     7     3    10 1   
     8     3    11 1   
     9     4     5 1   
    10     4     6 1   
    11     5    12 1   
    12     5    13 1   
    13     5    14 1   
    14     6     7 2   
    15     6    15 1   
    16     7    16 1   
@<TRIPOS>SUBSTRUCTURE
     1 DMI         1 TEMP              0 ****  ****    0 ROOT
