@<TRIPOS>MOLECULE
DMI
   16    16     1     0     0
SMALL
No Charge or Current Charge


@<TRIPOS>ATOM
      1 N1          -1.0310    -1.0500     0.0880 na         1 DMI      -0.124700
      2 C2           0.2930    -0.7000     0.0780 cc         1 DMI      -0.023600
      3 CM2          1.4730    -1.6340     0.1560 c3         1 DMI      -0.060800
      4 N3           0.3230     0.6830    -0.0170 na         1 DMI       0.061000
      5 CM3          1.5320     1.5170    -0.0610 c3         1 DMI       0.037900
      6 C4          -0.9930     1.1530    -0.0630 cc         1 DMI      -0.149000
      7 C5          -1.8400     0.0630     0.0020 cd         1 DMI      -0.142000
      8 HN1         -1.3750    -2.0050     0.1500 hn         1 DMI       0.409000
      9 HM21         2.1090    -1.5370    -0.7330 hc         1 DMI       0.098033
     10 HM22         2.0890    -1.4160     1.0360 hc         1 DMI       0.098033
     11 HM23         1.1540    -2.6800     0.2240 hc         1 DMI       0.098033
     12 HM31         1.2550     2.5750    -0.1360 h1         1 DMI       0.091367
     13 HM32         2.1180     1.3630     0.8530 h1         1 DMI       0.091367
     14 HM33         2.1380     1.2410    -0.9320 h1         1 DMI       0.091367
     15 H4          -1.2220     2.2110    -0.1390 h4         1 DMI       0.211000
     16 H5          -2.9260     0.0100    -0.0060 h4         1 DMI       0.213000
@<TRIPOS>BOND
     1     1     2 2   
     2     1     7 1   
     3     1     8 1   
     4     2     3 1   
     5     2     4 1   
     6     3     9 1   
     7     3    10 1   
     8     3    11 1   
     9     4     5 1   
    10     4     6 1   
    11     5    12 1   
    12     5    13 1   
    13     5    14 1   
    14     6     7 2   
    15     6    15 1   
    16     7    16 1   
@<TRIPOS>SUBSTRUCTURE
     1 DMI         1 TEMP              0 ****  ****    0 ROOT
