@<TRIPOS>MOLECULE
DMJ
   24    24     1     0     0
SMALL
No Charge or Current Charge


@<TRIPOS>ATOM
      1 C4           0.9710     0.1560    -0.1780 c6         1 DMJ       0.178300
      2 O4           2.3680    -0.0980     0.0810 oh         1 DMJ      -0.730000
      3 C3           0.5340    -0.6010    -1.4780 c6         1 DMJ       0.142300
      4 O3           1.2860    -0.1230    -2.6100 oh         1 DMJ      -0.651000
      5 C2          -0.9980    -0.4370    -1.7390 c6         1 DMJ       0.146300
      6 O2          -1.3170     0.9410    -1.9910 oh         1 DMJ      -0.692000
      7 C1          -1.7850    -0.9060    -0.4840 c6         1 DMJ       0.125800
      8 N5          -1.3900    -0.0930     0.6940 n7         1 DMJ      -0.863400
      9 C5           0.0600    -0.2610     1.0280 c6         1 DMJ       0.177500
     10 C6           0.4010     0.5280     2.3360 c3         1 DMJ       0.163600
     11 O6          -0.4400     0.1480     3.4460 oh         1 DMJ      -0.676000
     12 H4           0.8200     1.2330    -0.3470 h1         1 DMJ       0.073700
     13 HO4          2.7920    -0.1060    -0.8110 ho         1 DMJ       0.522000
     14 H3           0.7360    -1.6720    -1.3320 h1         1 DMJ       0.036700
     15 HO3          0.7270     0.5870    -3.0030 ho         1 DMJ       0.446000
     16 H2          -1.2870    -1.0600    -2.5980 h1         1 DMJ       0.025700
     17 HO2         -1.5770     1.2790    -1.1000 ho         1 DMJ       0.502000
     18 H11         -1.5840    -1.9700    -0.2910 h1         1 DMJ       0.035200
     19 H12         -2.8660    -0.7990    -0.6620 h1         1 DMJ       0.035200
     20 HN5         -1.9270    -0.3940     1.5210 hn         1 DMJ       0.437000
     21 H5           0.2430    -1.3260     1.2370 h1         1 DMJ       0.040700
     22 H61          0.2900     1.6010     2.1300 h1         1 DMJ       0.039700
     23 H62          1.4550     0.3490     2.5870 h1         1 DMJ       0.039700
     24 HO6         -0.1860     0.7170     4.2060 ho         1 DMJ       0.448000
@<TRIPOS>BOND
     1     1     2 1   
     2     1     3 1   
     3     1     9 1   
     4     1    12 1   
     5     2    13 1   
     6     3     4 1   
     7     3     5 1   
     8     3    14 1   
     9     4    15 1   
    10     5     6 1   
    11     5     7 1   
    12     5    16 1   
    13     6    17 1   
    14     7     8 1   
    15     7    18 1   
    16     7    19 1   
    17     8     9 1   
    18     8    20 1   
    19     9    10 1   
    20     9    21 1   
    21    10    11 1   
    22    10    22 1   
    23    10    23 1   
    24    11    24 1   
@<TRIPOS>SUBSTRUCTURE
     1 DMJ         1 TEMP              0 ****  ****    0 ROOT
