@<TRIPOS>MOLECULE
DMJ
   24    24     1     0     0
SMALL
abcg2


@<TRIPOS>ATOM
      1 C4           0.9260     0.2050    -0.1420 c6         1 DMJ       0.178300
      2 O4           2.2820    -0.1030     0.0950 oh         1 DMJ      -0.730000
      3 C3           0.4390    -0.4590    -1.4280 c6         1 DMJ       0.142300
      4 O3           1.2190     0.0530    -2.4850 oh         1 DMJ      -0.651000
      5 C2          -1.0570    -0.2520    -1.6340 c6         1 DMJ       0.146300
      6 O2          -1.2860     1.1130    -1.8950 oh         1 DMJ      -0.692000
      7 C1          -1.7790    -0.7460    -0.3860 c6         1 DMJ       0.125800
      8 N5          -1.2960    -0.0360     0.7790 n7         1 DMJ      -0.863400
      9 C5           0.1060    -0.2920     1.0490 c6         1 DMJ       0.177500
     10 C6           0.5190     0.4170     2.3270 c3         1 DMJ       0.163600
     11 O6          -0.2320    -0.1180     3.3970 oh         1 DMJ      -0.676000
     12 H4           0.7810     1.2920    -0.2270 h1         1 DMJ       0.073700
     13 HO4          2.7840     0.1740    -0.6780 ho         1 DMJ       0.522000
     14 H3           0.5980    -1.5430    -1.3170 h1         1 DMJ       0.036700
     15 HO3          1.1110    -0.5180    -3.2510 ho         1 DMJ       0.446000
     16 H2          -1.3830    -0.8730    -2.4840 h1         1 DMJ       0.025700
     17 HO2         -2.2360     1.2620    -1.9010 ho         1 DMJ       0.502000
     18 H11         -1.6370    -1.8370    -0.3200 h1         1 DMJ       0.035200
     19 H12         -2.8550    -0.5800    -0.4850 h1         1 DMJ       0.035200
     20 HN5         -1.8480    -0.2900     1.5870 hn         1 DMJ       0.437000
     21 H5           0.3110    -1.3730     1.1680 h1         1 DMJ       0.040700
     22 H61          0.3330     1.4930     2.2040 h1         1 DMJ       0.039700
     23 H62          1.5930     0.2850     2.4890 h1         1 DMJ       0.039700
     24 HO6         -0.0680     0.4190     4.1770 ho         1 DMJ       0.448000
@<TRIPOS>BOND
     1     1     2 1   
     2     1     3 1   
     3     1     9 1   
     4     1    12 1   
     5     2    13 1   
     6     3     4 1   
     7     3     5 1   
     8     3    14 1   
     9     4    15 1   
    10     5     6 1   
    11     5     7 1   
    12     5    16 1   
    13     6    17 1   
    14     7     8 1   
    15     7    18 1   
    16     7    19 1   
    17     8     9 1   
    18     8    20 1   
    19     9    10 1   
    20     9    21 1   
    21    10    11 1   
    22    10    22 1   
    23    10    23 1   
    24    11    24 1   
@<TRIPOS>SUBSTRUCTURE
     1 DMJ         1 TEMP              0 ****  ****    0 ROOT
