@<TRIPOS>MOLECULE
DMN
   10     9     1     0     0
SMALL
bcc


@<TRIPOS>ATOM
      1 N1           0.5300    -0.0970     0.0210 n7         1 DMN      -0.801200
      2 C2          -0.2520     0.0880     1.2250 c3         1 DMN       0.142100
      3 C3          -0.2640     0.0610    -1.1800 c3         1 DMN       0.142100
      4 HN1          1.2820     0.5790     0.0090 hn         1 DMN       0.349800
      5 H21          0.3920     0.0250     2.1030 h1         1 DMN       0.028033
      6 H22         -0.7900     1.0460     1.2700 h1         1 DMN       0.028033
      7 H23         -0.9990    -0.7050     1.3080 h1         1 DMN       0.028033
      8 H31          0.3730    -0.0180    -2.0620 h1         1 DMN       0.028033
      9 H32         -1.0080    -0.7360    -1.2400 h1         1 DMN       0.028033
     10 H33         -0.8050     1.0160    -1.2390 h1         1 DMN       0.028033
@<TRIPOS>BOND
     1     1     2 1   
     2     1     3 1   
     3     1     4 1   
     4     2     5 1   
     5     2     6 1   
     6     2     7 1   
     7     3     8 1   
     8     3     9 1   
     9     3    10 1   
@<TRIPOS>SUBSTRUCTURE
     1 DMN         1 TEMP              0 ****  ****    0 ROOT
