@<TRIPOS>MOLECULE
DMN
   10     9     1     0     0
SMALL
No Charge or Current Charge


@<TRIPOS>ATOM
      1 N1           0.5240    -0.0620     0.0200 n7         1 DMN      -0.856400
      2 C2          -0.2530     0.0710     1.2680 c3         1 DMN       0.142100
      3 C3          -0.2650     0.0430    -1.2230 c3         1 DMN       0.142100
      4 HN1          1.2390     0.6800     0.0090 hn         1 DMN       0.405000
      5 H21          0.4020    -0.0270     2.1440 h1         1 DMN       0.028033
      6 H22         -0.7470     1.0500     1.3210 h1         1 DMN       0.028033
      7 H23         -1.0260    -0.7080     1.3330 h1         1 DMN       0.028033
      8 H31          0.3820    -0.0740    -2.1020 h1         1 DMN       0.028033
      9 H32         -1.0380    -0.7360    -1.2630 h1         1 DMN       0.028033
     10 H33         -0.7600     1.0220    -1.2920 h1         1 DMN       0.028033
@<TRIPOS>BOND
     1     1     2 1   
     2     1     3 1   
     3     1     4 1   
     4     2     5 1   
     5     2     6 1   
     6     2     7 1   
     7     3     8 1   
     8     3     9 1   
     9     3    10 1   
@<TRIPOS>SUBSTRUCTURE
     1 DMN         1 TEMP              0 ****  ****    0 ROOT
