@<TRIPOS>MOLECULE
DMO
   23    22     1     0     0
SMALL
abcg2


@<TRIPOS>ATOM
      1 CAO         -1.4050     2.3920     0.0570 c3         1 DMO      -0.028800
      2 CO          -2.6270     3.1670     0.5380 c3         1 DMO       0.200300
      3 NO          -1.9040     1.5820    -1.0480 n8         1 DMO      -1.008200
      4 CBO         -0.9430     1.4840     1.2020 c3         1 DMO      -0.046400
      5 CGO          0.2400     0.5810     0.8730 c3         1 DMO      -0.107400
      6 CDO          0.7250    -0.1810     2.1050 c3         1 DMO       0.134800
      7 NEO          1.8360    -1.0940     1.8840 n8         1 DMO      -1.001200
      8 C           -0.2800     3.4010    -0.3510 c          1 DMO       0.709000
      9 O           -0.0540     3.5260    -1.5690 o          1 DMO      -0.710500
     10 OH           0.2860     4.0020     0.5800 o          1 DMO      -0.710500
     11 F1          -2.3890     3.9120     1.6530 f          1 DMO      -0.133500
     12 F2          -3.0300     4.0570    -0.4210 f          1 DMO      -0.133500
     13 HCO1        -3.4650     2.4980     0.7470 h2         1 DMO       0.022700
     14 HNO1        -1.2810     0.7980    -1.1950 hn         1 DMO       0.397000
     15 HNO2        -1.8260     2.1290    -1.8970 hn         1 DMO       0.397000
     16 HBO1        -1.7860     0.8600     1.5240 hc         1 DMO       0.037700
     17 HBO2        -0.6740     2.1050     2.0560 hc         1 DMO       0.037700
     18 HGO1         1.0700     1.1730     0.4750 hc         1 DMO       0.042200
     19 HGO2        -0.0180    -0.1520     0.1010 hc         1 DMO       0.042200
     20 HDO1        -0.1060    -0.7520     2.5280 h1         1 DMO       0.045200
     21 HDO2         1.0190     0.5380     2.8760 h1         1 DMO       0.045200
     22 HEO1         1.5630    -1.7950     1.2060 hn         1 DMO       0.383500
     23 HEO2         2.6030    -0.5890     1.4560 hn         1 DMO       0.383500
@<TRIPOS>BOND
     1     1     2 1   
     2     1     3 1   
     3     1     4 1   
     4     1     8 1   
     5     2    11 1   
     6     2    12 1   
     7     2    13 1   
     8     3    14 1   
     9     3    15 1   
    10     4     5 1   
    11     4    16 1   
    12     4    17 1   
    13     5     6 1   
    14     5    18 1   
    15     5    19 1   
    16     6     7 1   
    17     6    20 1   
    18     6    21 1   
    19     7    22 1   
    20     7    23 1   
    21     8     9 1   
    22     8    10 1   
@<TRIPOS>SUBSTRUCTURE
     1 DMO         1 TEMP              0 ****  ****    0 ROOT
