@<TRIPOS>MOLECULE
DMO
   23    22     1     0     0
SMALL
No Charge or Current Charge


@<TRIPOS>ATOM
      1 CAO         -1.4350     2.3960     0.0580 c3         1 DMO      -0.028800
      2 CO          -2.6710     3.2410     0.5200 c3         1 DMO       0.200300
      3 NO          -1.8750     1.4630    -1.0610 n8         1 DMO      -1.008200
      4 CBO         -0.9530     1.4890     1.2430 c3         1 DMO      -0.046400
      5 CGO          0.2600     0.5670     0.9380 c3         1 DMO      -0.107400
      6 CDO          0.7040    -0.2510     2.1680 c3         1 DMO       0.134800
      7 NEO          1.8550    -1.1170     1.8490 n8         1 DMO      -1.001200
      8 C           -0.2980     3.4340    -0.3670 c          1 DMO       0.709000
      9 O           -0.1300     3.6390    -1.5640 o          1 DMO      -0.710500
     10 OH           0.4540     3.8910     0.4850 o          1 DMO      -0.710500
     11 F1          -2.3590     4.0520     1.5590 f          1 DMO      -0.133500
     12 F2          -3.1150     4.0370    -0.4830 f          1 DMO      -0.133500
     13 HCO1        -3.4880     2.5800     0.8300 h2         1 DMO       0.022700
     14 HNO1        -1.0820     0.8650    -1.3170 hn         1 DMO       0.397000
     15 HNO2        -2.0060     2.0320    -1.9070 hn         1 DMO       0.397000
     16 HBO1        -1.7910     0.8600     1.5740 hc         1 DMO       0.037700
     17 HBO2        -0.6980     2.1180     2.1050 hc         1 DMO       0.037700
     18 HGO1         1.1030     1.1750     0.5890 hc         1 DMO       0.042200
     19 HGO2         0.0030    -0.1250     0.1270 hc         1 DMO       0.042200
     20 HDO1        -0.1290    -0.8790     2.5150 h1         1 DMO       0.045200
     21 HDO2         0.9860     0.4310     2.9830 h1         1 DMO       0.045200
     22 HEO1         1.6060    -1.7210     1.0560 hn         1 DMO       0.383500
     23 HEO2         2.6160    -0.5350     1.4790 hn         1 DMO       0.383500
@<TRIPOS>BOND
     1     1     2 1   
     2     1     3 1   
     3     1     4 1   
     4     1     8 1   
     5     2    11 1   
     6     2    12 1   
     7     2    13 1   
     8     3    14 1   
     9     3    15 1   
    10     4     5 1   
    11     4    16 1   
    12     4    17 1   
    13     5     6 1   
    14     5    18 1   
    15     5    19 1   
    16     6     7 1   
    17     6    20 1   
    18     6    21 1   
    19     7    22 1   
    20     7    23 1   
    21     8     9 1   
    22     8    10 1   
@<TRIPOS>SUBSTRUCTURE
     1 DMO         1 TEMP              0 ****  ****    0 ROOT
