@<TRIPOS>MOLECULE
DMP
   80    84     1     0     0
SMALL
bcc


@<TRIPOS>ATOM
      1 C1          -8.8230    15.2960    28.0600 c          1 DMP       0.820500
      2 C3          -8.6870    17.6340    27.2220 c3         1 DMP       0.109700
      3 C4         -10.0860    18.2280    27.3770 c3         1 DMP       0.128100
      4 C5         -10.7660    17.8460    28.6790 c3         1 DMP       0.128100
      5 C6         -10.9270    16.3350    28.8740 c3         1 DMP       0.109700
      6 C21         -8.6530    16.2810    24.5650 ca         1 DMP      -0.098800
      7 C22         -9.9440    15.9300    24.1830 ca         1 DMP      -0.120750
      8 C23        -10.5130    16.4620    23.0370 ca         1 DMP      -0.115250
      9 C24         -9.8050    17.3510    22.2320 ca         1 DMP      -0.083300
     10 C25         -8.5120    17.7000    22.6100 ca         1 DMP      -0.115250
     11 C26         -7.9460    17.1700    23.7610 ca         1 DMP      -0.120750
     12 C27        -10.4160    17.8890    20.9680 c3         1 DMP       0.185700
     13 C30         -7.6810    18.0840    28.2930 c3         1 DMP      -0.051100
     14 C31         -6.2790    17.6720    27.9390 ca         1 DMP      -0.085300
     15 C32         -5.6440    16.6280    28.6050 ca         1 DMP      -0.123750
     16 C33         -4.3680    16.2190    28.2380 ca         1 DMP      -0.127000
     17 C34         -3.7050    16.8520    27.1960 ca         1 DMP      -0.129500
     18 C35         -4.3250    17.9040    26.5300 ca         1 DMP      -0.127000
     19 C36         -5.5980    18.3080    26.9010 ca         1 DMP      -0.123750
     20 C60        -11.8080    15.6530    27.8170 c3         1 DMP      -0.051100
     21 C61        -12.1000    14.2200    28.1670 ca         1 DMP      -0.085300
     22 C62        -12.9650    13.9110    29.2170 ca         1 DMP      -0.123750
     23 C63        -13.2110    12.5930    29.5730 ca         1 DMP      -0.127000
     24 C64        -12.5960    11.5570    28.8790 ca         1 DMP      -0.129500
     25 C65        -11.7430    11.8520    27.8250 ca         1 DMP      -0.127000
     26 C66        -11.4990    13.1740    27.4740 ca         1 DMP      -0.123750
     27 C71         -9.8080    15.6810    31.5520 ca         1 DMP      -0.098800
     28 C72        -10.9330    15.4580    32.3360 ca         1 DMP      -0.120750
     29 C73        -11.1680    16.2040    33.4850 ca         1 DMP      -0.115250
     30 C74        -10.2780    17.1980    33.8740 ca         1 DMP      -0.083300
     31 C75         -9.1520    17.4260    33.0860 ca         1 DMP      -0.115250
     32 C76         -8.9170    16.6760    31.9450 ca         1 DMP      -0.120750
     33 C77        -10.4800    17.9870    35.1390 c3         1 DMP       0.185700
     34 N2          -8.7140    16.1860    27.0200 n          1 DMP      -0.478800
     35 N7          -9.6470    15.6640    29.0970 n          1 DMP      -0.478800
     36 O1          -8.2170    14.2310    28.0660 o          1 DMP      -0.667500
     37 O4          -9.9530    19.6250    27.2720 oh         1 DMP      -0.604800
     38 O5         -12.0260    18.4860    28.6640 oh         1 DMP      -0.604800
     39 O27        -10.1320    19.2650    20.8540 oh         1 DMP      -0.593800
     40 O77        -11.8540    18.1640    35.3800 oh         1 DMP      -0.593800
     41 H3          -8.3270    18.0450    26.2750 h1         1 DMP       0.068700
     42 H4         -10.6850    17.8390    26.5390 h1         1 DMP       0.057700
     43 H5         -10.1630    18.2180    29.5200 h1         1 DMP       0.057700
     44 H6         -11.4640    16.2430    29.8220 h1         1 DMP       0.068700
     45 H201        -8.1190    14.6230    25.7890 h1         1 DMP       0.066200
     46 H202        -6.9730    15.9480    25.8470 h1         1 DMP       0.066200
     47 H22        -10.5120    15.2330    24.7880 ha         1 DMP       0.133750
     48 H23        -11.5240    16.1810    22.7650 ha         1 DMP       0.136250
     49 H25         -7.9360    18.3890    22.0050 ha         1 DMP       0.136250
     50 H26         -6.9390    17.4560    24.0420 ha         1 DMP       0.133750
     51 H271       -10.0100    17.3300    20.1140 h1         1 DMP       0.026450
     52 H272       -11.4960    17.6940    20.9790 h1         1 DMP       0.026450
     53 H301        -7.7370    19.1720    28.3710 hc         1 DMP       0.065450
     54 H302        -7.9450    17.6850    29.2720 hc         1 DMP       0.065450
     55 H32         -6.1510    16.1290    29.4230 ha         1 DMP       0.130750
     56 H33         -3.8920    15.4030    28.7680 ha         1 DMP       0.130500
     57 H34         -2.7120    16.5340    26.9080 ha         1 DMP       0.129500
     58 H35         -3.8140    18.4100    25.7210 ha         1 DMP       0.130500
     59 H36         -6.0740    19.1270    26.3740 ha         1 DMP       0.130750
     60 H601       -12.7430    16.2140    27.7560 hc         1 DMP       0.065450
     61 H602       -11.3480    15.7010    26.8300 hc         1 DMP       0.065450
     62 H62        -13.4480    14.7120    29.7650 ha         1 DMP       0.130750
     63 H63        -13.8840    12.3730    30.3910 ha         1 DMP       0.130500
     64 H64        -12.7870    10.5270    29.1540 ha         1 DMP       0.129500
     65 H65        -11.2660    11.0520    27.2730 ha         1 DMP       0.130500
     66 H66        -10.8360    13.3940    26.6450 ha         1 DMP       0.130750
     67 H701        -8.5500    14.4420    30.3650 h1         1 DMP       0.066200
     68 H702       -10.2480    14.0160    30.2840 h1         1 DMP       0.066200
     69 H72        -11.6410    14.6880    32.0480 ha         1 DMP       0.133750
     70 H73        -12.0540    16.0020    34.0730 ha         1 DMP       0.136250
     71 H75         -8.4480    18.2000    33.3680 ha         1 DMP       0.136250
     72 H76         -8.0270    16.8670    31.3570 ha         1 DMP       0.133750
     73 H771        -9.9970    17.4490    35.9660 h1         1 DMP       0.026450
     74 H772        -9.9540    18.9470    35.0490 h1         1 DMP       0.026450
     75 HO4        -10.8050    20.0170    27.4940 ho         1 DMP       0.419500
     76 HO5        -12.3650    18.5240    29.5640 ho         1 DMP       0.419500
     77 HO27       -10.3580    19.5420    19.9610 ho         1 DMP       0.405500
     78 HO77       -11.9620    18.4810    36.2820 ho         1 DMP       0.405500
     79 C20         -8.0400    15.7080    25.8150 c3         1 DMP       0.140800
     80 C70         -9.5530    14.8620    30.3140 c3         1 DMP       0.140800
@<TRIPOS>BOND
     1     1    34 1   
     2     1    35 1   
     3     1    36 2   
     4     2     3 1   
     5     2    13 1   
     6     2    34 1   
     7     2    41 1   
     8     3     4 1   
     9     3    37 1   
    10     3    42 1   
    11     4     5 1   
    12     4    38 1   
    13     4    43 1   
    14     5    20 1   
    15     5    35 1   
    16     5    44 1   
    17     6     7 ar  
    18     6    11 ar  
    19     6    79 1   
    20     7     8 ar  
    21     7    47 1   
    22     8     9 ar  
    23     8    48 1   
    24     9    10 ar  
    25     9    12 1   
    26    10    11 ar  
    27    10    49 1   
    28    11    50 1   
    29    12    39 1   
    30    12    51 1   
    31    12    52 1   
    32    13    14 1   
    33    13    53 1   
    34    13    54 1   
    35    14    15 ar  
    36    14    19 ar  
    37    15    16 ar  
    38    15    55 1   
    39    16    17 ar  
    40    16    56 1   
    41    17    18 ar  
    42    17    57 1   
    43    18    19 ar  
    44    18    58 1   
    45    19    59 1   
    46    20    21 1   
    47    20    60 1   
    48    20    61 1   
    49    21    22 ar  
    50    21    26 ar  
    51    22    23 ar  
    52    22    62 1   
    53    23    24 ar  
    54    23    63 1   
    55    24    25 ar  
    56    24    64 1   
    57    25    26 ar  
    58    25    65 1   
    59    26    66 1   
    60    27    28 ar  
    61    27    32 ar  
    62    27    80 1   
    63    28    29 ar  
    64    28    69 1   
    65    29    30 ar  
    66    29    70 1   
    67    30    31 ar  
    68    30    33 1   
    69    31    32 ar  
    70    31    71 1   
    71    32    72 1   
    72    33    40 1   
    73    33    73 1   
    74    33    74 1   
    75    34    79 1   
    76    35    80 1   
    77    37    75 1   
    78    38    76 1   
    79    39    77 1   
    80    40    78 1   
    81    45    79 1   
    82    46    79 1   
    83    67    80 1   
    84    68    80 1   
@<TRIPOS>SUBSTRUCTURE
     1 DMP         1 TEMP              0 ****  ****    0 ROOT
