@<TRIPOS>MOLECULE
DMP
   80    84     1     0     0
SMALL
No Charge or Current Charge


@<TRIPOS>ATOM
      1 C1          -8.7670    15.2600    28.0570 c          1 DMP       0.611000
      2 C3          -8.6410    17.6490    27.2330 c3         1 DMP       0.109700
      3 C4         -10.0680    18.2390    27.3910 c3         1 DMP       0.151300
      4 C5         -10.7550    17.8370    28.7200 c3         1 DMP       0.151300
      5 C6         -10.9260    16.3010    28.8680 c3         1 DMP       0.109700
      6 C21         -8.6000    16.2950    24.4750 ca         1 DMP      -0.098800
      7 C22         -9.8650    15.8410    24.0590 ca         1 DMP      -0.102750
      8 C23        -10.4640    16.3710    22.9030 ca         1 DMP      -0.097250
      9 C24         -9.8030    17.3590    22.1470 ca         1 DMP      -0.083300
     10 C25         -8.5350    17.8100    22.5630 ca         1 DMP      -0.097250
     11 C26         -7.9370    17.2810    23.7200 ca         1 DMP      -0.102750
     12 C27        -10.4490    17.9280    20.8900 c3         1 DMP       0.208900
     13 C30         -7.6070    18.1030    28.3040 c3         1 DMP      -0.051100
     14 C31         -6.1850    17.6760    27.9600 ca         1 DMP      -0.085300
     15 C32         -5.5720    16.6130    28.6510 ca         1 DMP      -0.105750
     16 C33         -4.2690    16.2070    28.3150 ca         1 DMP      -0.109000
     17 C34         -3.5710    16.8620    27.2860 ca         1 DMP      -0.111500
     18 C35         -4.1780    17.9230    26.5930 ca         1 DMP      -0.109000
     19 C36         -5.4810    18.3290    26.9300 ca         1 DMP      -0.105750
     20 C60        -11.8140    15.6180    27.7880 c3         1 DMP      -0.051100
     21 C61        -12.1300    14.1660    28.1280 ca         1 DMP      -0.085300
     22 C62        -13.0590    13.8650    29.1440 ca         1 DMP      -0.105750
     23 C63        -13.3350    12.5280    29.4770 ca         1 DMP      -0.109000
     24 C64        -12.6860    11.4840    28.7970 ca         1 DMP      -0.111500
     25 C65        -11.7600    11.7790    27.7820 ca         1 DMP      -0.109000
     26 C66        -11.4830    13.1160    27.4480 ca         1 DMP      -0.105750
     27 C71         -9.8230    15.6080    31.6310 ca         1 DMP      -0.098800
     28 C72        -11.0120    15.4440    32.3680 ca         1 DMP      -0.102750
     29 C73        -11.2470    16.2200    33.5160 ca         1 DMP      -0.097250
     30 C74        -10.2960    17.1680    33.9420 ca         1 DMP      -0.083300
     31 C75         -9.1060    17.3290    33.2060 ca         1 DMP      -0.097250
     32 C76         -8.8710    16.5520    32.0580 ca         1 DMP      -0.102750
     33 C77        -10.5490    18.0050    35.1900 c3         1 DMP       0.208900
     34 N2          -8.6170    16.1750    26.9900 n          1 DMP      -0.411800
     35 N7          -9.6470    15.5710    29.1180 n          1 DMP      -0.411800
     36 O1          -8.1430    14.2080    28.0610 o          1 DMP      -0.592000
     37 O4         -10.0360    19.6750    27.3110 oh         1 DMP      -0.667000
     38 O5         -12.0340    18.5050    28.8050 oh         1 DMP      -0.667000
     39 O27        -11.2490    19.0710    21.2120 oh         1 DMP      -0.656000
     40 O77        -11.2390    19.2130    34.8480 oh         1 DMP      -0.656000
     41 H3          -8.2790    18.1140    26.3080 h1         1 DMP       0.068700
     42 H4         -10.6740    17.8550    26.5600 h1         1 DMP       0.057700
     43 H5         -10.1220    18.1770    29.5510 h1         1 DMP       0.057700
     44 H6         -11.5160    16.1980    29.7860 h1         1 DMP       0.068700
     45 H201        -8.0020    14.6320    25.6640 h1         1 DMP       0.066200
     46 H202        -6.8990    16.0050    25.7740 h1         1 DMP       0.066200
     47 H22        -10.3860    15.0770    24.6310 ha         1 DMP       0.115750
     48 H23        -11.4440    16.0130    22.5930 ha         1 DMP       0.118250
     49 H25         -8.0140    18.5740    21.9900 ha         1 DMP       0.118250
     50 H26         -6.9580    17.6420    24.0300 ha         1 DMP       0.115750
     51 H271        -9.6640    18.2030    20.1720 h1         1 DMP       0.026450
     52 H272       -11.0670    17.1520    20.4180 h1         1 DMP       0.026450
     53 H301        -7.6390    19.1950    28.3960 hc         1 DMP       0.065450
     54 H302        -7.8910    17.7140    29.2870 hc         1 DMP       0.065450
     55 H32         -6.1060    16.0940    29.4440 ha         1 DMP       0.112750
     56 H33         -3.8010    15.3840    28.8500 ha         1 DMP       0.112500
     57 H34         -2.5630    16.5470    27.0250 ha         1 DMP       0.111500
     58 H35         -3.6390    18.4310    25.7960 ha         1 DMP       0.112500
     59 H36         -5.9440    19.1500    26.3870 ha         1 DMP       0.112750
     60 H601       -12.7530    16.1750    27.6870 hc         1 DMP       0.065450
     61 H602       -11.3270    15.6780    26.8090 hc         1 DMP       0.065450
     62 H62        -13.5640    14.6660    29.6780 ha         1 DMP       0.112750
     63 H63        -14.0520    12.3010    30.2640 ha         1 DMP       0.112500
     64 H64        -12.9000    10.4490    29.0550 ha         1 DMP       0.111500
     65 H65        -11.2550    10.9720    27.2550 ha         1 DMP       0.112500
     66 H66        -10.7580    13.3330    26.6670 ha         1 DMP       0.112750
     67 H701        -8.5770    14.3290    30.4690 h1         1 DMP       0.066200
     68 H702       -10.2970    13.9600    30.3170 h1         1 DMP       0.066200
     69 H72        -11.7580    14.7190    32.0490 ha         1 DMP       0.115750
     70 H73        -12.1710    16.0870    34.0750 ha         1 DMP       0.118250
     71 H75         -8.3630    18.0570    33.5230 ha         1 DMP       0.118250
     72 H76         -7.9480    16.6860    31.4990 ha         1 DMP       0.115750
     73 H771       -11.1400    17.4190    35.9060 h1         1 DMP       0.026450
     74 H772        -9.5890    18.2390    35.6700 h1         1 DMP       0.026450
     75 HO4        -10.8920    19.9590    27.7080 ho         1 DMP       0.458500
     76 HO5        -12.3610    18.4030    29.7270 ho         1 DMP       0.458500
     77 HO27       -11.6360    19.3910    20.3680 ho         1 DMP       0.444500
     78 HO77       -11.3720    19.7070    35.6870 ho         1 DMP       0.444500
     79 C20         -7.9610    15.7260    25.7360 c3         1 DMP       0.140800
     80 C70         -9.5720    14.7830    30.3740 c3         1 DMP       0.140800
@<TRIPOS>BOND
     1     1    34 1   
     2     1    35 1   
     3     1    36 2   
     4     2     3 1   
     5     2    13 1   
     6     2    34 1   
     7     2    41 1   
     8     3     4 1   
     9     3    37 1   
    10     3    42 1   
    11     4     5 1   
    12     4    38 1   
    13     4    43 1   
    14     5    20 1   
    15     5    35 1   
    16     5    44 1   
    17     6     7 ar  
    18     6    11 ar  
    19     6    79 1   
    20     7     8 ar  
    21     7    47 1   
    22     8     9 ar  
    23     8    48 1   
    24     9    10 ar  
    25     9    12 1   
    26    10    11 ar  
    27    10    49 1   
    28    11    50 1   
    29    12    39 1   
    30    12    51 1   
    31    12    52 1   
    32    13    14 1   
    33    13    53 1   
    34    13    54 1   
    35    14    15 ar  
    36    14    19 ar  
    37    15    16 ar  
    38    15    55 1   
    39    16    17 ar  
    40    16    56 1   
    41    17    18 ar  
    42    17    57 1   
    43    18    19 ar  
    44    18    58 1   
    45    19    59 1   
    46    20    21 1   
    47    20    60 1   
    48    20    61 1   
    49    21    22 ar  
    50    21    26 ar  
    51    22    23 ar  
    52    22    62 1   
    53    23    24 ar  
    54    23    63 1   
    55    24    25 ar  
    56    24    64 1   
    57    25    26 ar  
    58    25    65 1   
    59    26    66 1   
    60    27    28 ar  
    61    27    32 ar  
    62    27    80 1   
    63    28    29 ar  
    64    28    69 1   
    65    29    30 ar  
    66    29    70 1   
    67    30    31 ar  
    68    30    33 1   
    69    31    32 ar  
    70    31    71 1   
    71    32    72 1   
    72    33    40 1   
    73    33    73 1   
    74    33    74 1   
    75    34    79 1   
    76    35    80 1   
    77    37    75 1   
    78    38    76 1   
    79    39    77 1   
    80    40    78 1   
    81    45    79 1   
    82    46    79 1   
    83    67    80 1   
    84    68    80 1   
@<TRIPOS>SUBSTRUCTURE
     1 DMP         1 TEMP              0 ****  ****    0 ROOT
