@<TRIPOS>MOLECULE
DMQ
   76    80     1     0     0
SMALL
abcg2


@<TRIPOS>ATOM
      1 C1          -8.9200    15.5110    27.9570 c          1 DMQ       0.606000
      2 O1          -8.3270    14.4400    27.9840 o          1 DMQ      -0.592000
      3 N2          -8.9360    16.2960    26.8290 n          1 DMQ      -0.407300
      4 C2          -8.4010    15.6810    25.6160 c3         1 DMQ       0.138800
      5 C3          -8.8620    17.7560    26.8860 c3         1 DMQ       0.107200
      6 C4         -10.2200    18.3950    27.1700 c3         1 DMQ       0.152300
      7 O4         -10.0830    19.7750    26.9220 oh         1 DMQ      -0.669500
      8 C5         -10.7260    18.1490    28.5790 c3         1 DMQ       0.152300
      9 O5         -11.9640    18.8240    28.6710 oh         1 DMQ      -0.669500
     10 C6         -10.8890    16.6680    28.9350 c3         1 DMQ       0.107200
     11 C7          -9.3870    15.2360    30.2970 c3         1 DMQ       0.138800
     12 N7          -9.6030    15.9810    29.0560 n          1 DMQ      -0.407300
     13 C20         -9.0430    16.2300    24.3680 ca         1 DMQ      -0.061300
     14 C21        -10.4140    16.0920    24.1560 ca         1 DMQ      -0.142500
     15 C22        -10.9760    16.5950    22.9930 ca         1 DMQ      -0.075000
     16 C23        -10.1970    17.2270    22.0350 ca         1 DMQ      -0.175500
     17 C28         -8.8190    17.3650    22.2280 ca         1 DMQ       0.289000
     18 N29         -8.0170    17.9370    21.2630 nv         1 DMQ      -1.075000
     19 C29         -8.2620    16.8610    23.4110 ca         1 DMQ      -0.172000
     20 C31         -7.7160    18.2790    27.7670 c3         1 DMQ      -0.051100
     21 C32         -6.3780    17.8050    27.2740 ca         1 DMQ      -0.085300
     22 C33         -5.6790    16.8020    27.9380 ca         1 DMQ      -0.104250
     23 C34         -4.4670    16.3320    27.4480 ca         1 DMQ      -0.110500
     24 C35         -3.9330    16.8630    26.2820 ca         1 DMQ      -0.111500
     25 C36         -4.6160    17.8740    25.6150 ca         1 DMQ      -0.110500
     26 C37         -5.8260    18.3390    26.1100 ca         1 DMQ      -0.104250
     27 C61        -11.9120    15.9200    28.0650 c3         1 DMQ      -0.051100
     28 C62        -12.1720    14.5330    28.5810 ca         1 DMQ      -0.085300
     29 C63        -12.8940    14.3390    29.7580 ca         1 DMQ      -0.104250
     30 C64        -13.0910    13.0660    30.2720 ca         1 DMQ      -0.110500
     31 C65        -12.5680    11.9590    29.6130 ca         1 DMQ      -0.111500
     32 C66        -11.8590    12.1380    28.4330 ca         1 DMQ      -0.110500
     33 C67        -11.6660    13.4160    27.9220 ca         1 DMQ      -0.104250
     34 C70         -9.6000    16.0890    31.5200 ca         1 DMQ      -0.061300
     35 C71        -10.5410    15.7080    32.4660 ca         1 DMQ      -0.172000
     36 C72        -10.7500    16.4560    33.6330 ca         1 DMQ       0.289000
     37 N79        -11.7240    16.0900    34.5370 nv         1 DMQ      -1.075000
     38 C77         -9.9860    17.6120    33.8220 ca         1 DMQ      -0.175500
     39 C78         -9.0480    17.9920    32.8740 ca         1 DMQ      -0.075000
     40 C79         -8.8440    17.2410    31.7260 ca         1 DMQ      -0.142500
     41 H21A        -7.3150    15.8060    25.5570 h1         1 DMQ       0.065700
     42 H22A        -8.5910    14.6100    25.6680 h1         1 DMQ       0.065700
     43 H3          -8.6300    18.0660    25.8650 h1         1 DMQ       0.071200
     44 H4         -10.9300    17.9500    26.4550 h1         1 DMQ       0.057200
     45 HO4        -10.8930    20.2070    27.2160 ho         1 DMQ       0.458500
     46 H5         -10.0080    18.5750    29.2950 h1         1 DMQ       0.057200
     47 HO5        -12.1920    18.9310    29.6000 ho         1 DMQ       0.458500
     48 H6         -11.3000    16.6750    29.9480 h1         1 DMQ       0.071200
     49 H71A       -10.0340    14.3550    30.3430 h1         1 DMQ       0.065700
     50 H72         -8.3610    14.8720    30.2960 h1         1 DMQ       0.065700
     51 H21        -11.0330    15.5910    24.8900 ha         1 DMQ       0.117500
     52 H22        -12.0410    16.4940    22.8230 ha         1 DMQ       0.111000
     53 H23        -10.6550    17.6130    21.1320 ha         1 DMQ       0.111500
     54 HN21        -7.1380    18.3080    21.5870 hn         1 DMQ       0.448250
     55 HN22        -8.4770    18.5680    20.6270 hn         1 DMQ       0.448250
     56 H29         -7.1960    16.9720    23.5840 ha         1 DMQ       0.115000
     57 H311        -7.7500    19.3690    27.7470 hc         1 DMQ       0.064700
     58 H312        -7.8520    17.9780    28.8060 hc         1 DMQ       0.064700
     59 H33         -6.0860    16.3840    28.8520 ha         1 DMQ       0.113500
     60 H34         -3.9390    15.5490    27.9780 ha         1 DMQ       0.112000
     61 H35         -2.9900    16.4980    25.8970 ha         1 DMQ       0.111000
     62 H36         -4.2050    18.3010    24.7090 ha         1 DMQ       0.112000
     63 H37         -6.3530    19.1250    25.5800 ha         1 DMQ       0.113500
     64 H611       -12.8380    16.4980    28.0730 hc         1 DMQ       0.064700
     65 H612       -11.5820    15.8690    27.0280 hc         1 DMQ       0.064700
     66 H63        -13.3000    15.1970    30.2830 ha         1 DMQ       0.113500
     67 H64        -13.6520    12.9360    31.1890 ha         1 DMQ       0.112000
     68 H65        -12.7190    10.9650    30.0130 ha         1 DMQ       0.111000
     69 H66        -11.4540    11.2830    27.9080 ha         1 DMQ       0.112000
     70 H67        -11.1140    13.5460    26.9990 ha         1 DMQ       0.113500
     71 H71        -11.1330    14.8140    32.2980 ha         1 DMQ       0.115000
     72 HN71       -11.6050    16.4420    35.4740 hn         1 DMQ       0.448250
     73 HN72       -11.9810    15.1160    34.5340 hn         1 DMQ       0.448250
     74 H77        -10.1280    18.2120    34.7140 ha         1 DMQ       0.111500
     75 H78         -8.4610    18.8870    33.0420 ha         1 DMQ       0.111000
     76 H79         -8.0990    17.5430    31.0000 ha         1 DMQ       0.117500
@<TRIPOS>BOND
     1     1     2 2   
     2     1     3 1   
     3     1    12 1   
     4     3     4 1   
     5     3     5 1   
     6     4    13 1   
     7     4    41 1   
     8     4    42 1   
     9     5     6 1   
    10     5    20 1   
    11     5    43 1   
    12     6     7 1   
    13     6     8 1   
    14     6    44 1   
    15     7    45 1   
    16     8     9 1   
    17     8    10 1   
    18     8    46 1   
    19     9    47 1   
    20    10    12 1   
    21    10    27 1   
    22    10    48 1   
    23    11    12 1   
    24    11    34 1   
    25    11    49 1   
    26    11    50 1   
    27    13    14 ar  
    28    13    19 ar  
    29    14    15 ar  
    30    14    51 1   
    31    15    16 ar  
    32    15    52 1   
    33    16    17 ar  
    34    16    53 1   
    35    17    18 1   
    36    17    19 ar  
    37    18    54 1   
    38    18    55 1   
    39    19    56 1   
    40    20    21 1   
    41    20    57 1   
    42    20    58 1   
    43    21    22 ar  
    44    21    26 ar  
    45    22    23 ar  
    46    22    59 1   
    47    23    24 ar  
    48    23    60 1   
    49    24    25 ar  
    50    24    61 1   
    51    25    26 ar  
    52    25    62 1   
    53    26    63 1   
    54    27    28 1   
    55    27    64 1   
    56    27    65 1   
    57    28    29 ar  
    58    28    33 ar  
    59    29    30 ar  
    60    29    66 1   
    61    30    31 ar  
    62    30    67 1   
    63    31    32 ar  
    64    31    68 1   
    65    32    33 ar  
    66    32    69 1   
    67    33    70 1   
    68    34    35 ar  
    69    34    40 ar  
    70    35    36 ar  
    71    35    71 1   
    72    36    37 1   
    73    36    38 ar  
    74    37    72 1   
    75    37    73 1   
    76    38    39 ar  
    77    38    74 1   
    78    39    40 ar  
    79    39    75 1   
    80    40    76 1   
@<TRIPOS>SUBSTRUCTURE
     1 DMQ         1 TEMP              0 ****  ****    0 ROOT
