@<TRIPOS>MOLECULE
DMQ
   76    80     1     0     0
SMALL
No Charge or Current Charge


@<TRIPOS>ATOM
      1 C1          -8.8630    15.4260    27.9480 c          1 DMQ       0.606000
      2 O1          -8.2510    14.3680    27.9660 o          1 DMQ      -0.592000
      3 N2          -8.8160    16.2600    26.8070 n          1 DMQ      -0.407300
      4 C2          -8.2960    15.7090    25.5290 c3         1 DMQ       0.138800
      5 C3          -8.8030    17.7470    26.9400 c3         1 DMQ       0.107200
      6 C4         -10.2000    18.3700    27.1990 c3         1 DMQ       0.152300
      7 O4         -10.1660    19.7950    27.0080 oh         1 DMQ      -0.669500
      8 C5         -10.7490    18.0780    28.6180 c3         1 DMQ       0.152300
      9 O5         -12.0060    18.7710    28.7840 oh         1 DMQ      -0.669500
     10 C6         -10.9170    16.5600    28.8980 c3         1 DMQ       0.107200
     11 C7          -9.4250    15.1390    30.3680 c3         1 DMQ       0.138800
     12 N7          -9.6250    15.8290    29.0680 n          1 DMQ      -0.407300
     13 C20         -9.0510    16.1970    24.2980 ca         1 DMQ      -0.061300
     14 C21        -10.3620    15.7470    24.0480 ca         1 DMQ      -0.142500
     15 C22        -11.0660    16.2040    22.9220 ca         1 DMQ      -0.075000
     16 C23        -10.4600    17.1130    22.0380 ca         1 DMQ      -0.175500
     17 C28         -9.1530    17.5630    22.2780 ca         1 DMQ       0.289000
     18 N29         -8.5660    18.4470    21.4150 nv         1 DMQ      -1.075000
     19 C29         -8.4510    17.1070    23.4030 ca         1 DMQ      -0.172000
     20 C31         -7.6590    18.2630    27.8620 c3         1 DMQ      -0.051100
     21 C32         -6.2840    17.7880    27.4060 ca         1 DMQ      -0.085300
     22 C33         -5.6130    16.7660    28.1060 ca         1 DMQ      -0.104250
     23 C34         -4.3560    16.3160    27.6690 ca         1 DMQ      -0.110500
     24 C35         -3.7610    16.8860    26.5300 ca         1 DMQ      -0.111500
     25 C36         -4.4250    17.9060    25.8290 ca         1 DMQ      -0.110500
     26 C37         -5.6830    18.3560    26.2660 ca         1 DMQ      -0.104250
     27 C61        -11.9190    15.8140    27.9700 c3         1 DMQ      -0.051100
     28 C62        -12.2080    14.3950    28.4450 ca         1 DMQ      -0.085300
     29 C63        -13.0280    14.1800    29.5710 ca         1 DMQ      -0.104250
     30 C64        -13.2780    12.8740    30.0260 ca         1 DMQ      -0.110500
     31 C65        -12.7110    11.7760    29.3590 ca         1 DMQ      -0.111500
     32 C66        -11.8930    11.9840    28.2360 ca         1 DMQ      -0.110500
     33 C67        -11.6430    13.2900    27.7800 ca         1 DMQ      -0.104250
     34 C70         -9.4970    16.0720    31.5720 ca         1 DMQ      -0.061300
     35 C71        -10.6010    16.0290    32.4470 ca         1 DMQ      -0.172000
     36 C72        -10.6710    16.8990    33.5450 ca         1 DMQ       0.289000
     37 N79        -11.7460    16.8530    34.3890 nv         1 DMQ      -1.075000
     38 C77         -9.6370    17.8180    33.7770 ca         1 DMQ      -0.175500
     39 C78         -8.5300    17.8670    32.9120 ca         1 DMQ      -0.075000
     40 C79         -8.4610    16.9940    31.8130 ca         1 DMQ      -0.142500
     41 H21A        -7.2330    15.9670    25.4400 h1         1 DMQ       0.065700
     42 H22A        -8.3590    14.6130    25.5420 h1         1 DMQ       0.065700
     43 H3          -8.5340    18.1380    25.9500 h1         1 DMQ       0.071200
     44 H4         -10.8930    17.9350    26.4660 h1         1 DMQ       0.057200
     45 HO4        -10.9730    20.1210    27.4710 ho         1 DMQ       0.458500
     46 H5         -10.0300    18.4680    29.3520 h1         1 DMQ       0.057200
     47 HO5        -12.2390    18.7380    29.7390 ho         1 DMQ       0.458500
     48 H6         -11.4070    16.5340    29.8790 h1         1 DMQ       0.071200
     49 H71A       -10.1780    14.3460    30.4650 h1         1 DMQ       0.065700
     50 H72         -8.4420    14.6520    30.3840 h1         1 DMQ       0.065700
     51 H21        -10.8340    15.0420    24.7280 ha         1 DMQ       0.117500
     52 H22        -12.0790    15.8540    22.7340 ha         1 DMQ       0.111000
     53 H23        -11.0070    17.4630    21.1670 ha         1 DMQ       0.111500
     54 HN21        -7.6780    18.8800    21.6590 hn         1 DMQ       0.448250
     55 HN22        -9.1190    18.8840    20.6800 hn         1 DMQ       0.448250
     56 H29         -7.4400    17.4590    23.5880 ha         1 DMQ       0.115000
     57 H311        -7.6720    19.3590    27.8750 hc         1 DMQ       0.064700
     58 H312        -7.8430    17.9510    28.8950 hc         1 DMQ       0.064700
     59 H33         -6.0680    16.3130    28.9830 ha         1 DMQ       0.113500
     60 H34         -3.8430    15.5240    28.2110 ha         1 DMQ       0.112000
     61 H35         -2.7880    16.5360    26.1910 ha         1 DMQ       0.111000
     62 H36         -3.9670    18.3470    24.9470 ha         1 DMQ       0.112000
     63 H37         -6.1920    19.1450    25.7160 ha         1 DMQ       0.113500
     64 H611       -12.8590    16.3760    27.9270 hc         1 DMQ       0.064700
     65 H612       -11.5380    15.7970    26.9430 hc         1 DMQ       0.064700
     66 H63        -13.4690    15.0250    30.0950 ha         1 DMQ       0.113500
     67 H64        -13.9110    12.7140    30.8970 ha         1 DMQ       0.112000
     68 H65        -12.9040    10.7650    29.7120 ha         1 DMQ       0.111000
     69 H66        -11.4520    11.1340    27.7190 ha         1 DMQ       0.112000
     70 H67        -11.0020    13.4400    26.9140 ha         1 DMQ       0.113500
     71 H71        -11.4050    15.3200    32.2680 ha         1 DMQ       0.115000
     72 HN71       -11.7270    17.3790    35.2610 hn         1 DMQ       0.448250
     73 HN72       -12.4200    16.0940    34.3120 hn         1 DMQ       0.448250
     74 H77         -9.6870    18.4950    34.6250 ha         1 DMQ       0.111500
     75 H78         -7.7280    18.5790    33.0930 ha         1 DMQ       0.111000
     76 H79         -7.6010    17.0350    31.1480 ha         1 DMQ       0.117500
@<TRIPOS>BOND
     1     1     2 2   
     2     1     3 1   
     3     1    12 1   
     4     3     4 1   
     5     3     5 1   
     6     4    13 1   
     7     4    41 1   
     8     4    42 1   
     9     5     6 1   
    10     5    20 1   
    11     5    43 1   
    12     6     7 1   
    13     6     8 1   
    14     6    44 1   
    15     7    45 1   
    16     8     9 1   
    17     8    10 1   
    18     8    46 1   
    19     9    47 1   
    20    10    12 1   
    21    10    27 1   
    22    10    48 1   
    23    11    12 1   
    24    11    34 1   
    25    11    49 1   
    26    11    50 1   
    27    13    14 ar  
    28    13    19 ar  
    29    14    15 ar  
    30    14    51 1   
    31    15    16 ar  
    32    15    52 1   
    33    16    17 ar  
    34    16    53 1   
    35    17    18 1   
    36    17    19 ar  
    37    18    54 1   
    38    18    55 1   
    39    19    56 1   
    40    20    21 1   
    41    20    57 1   
    42    20    58 1   
    43    21    22 ar  
    44    21    26 ar  
    45    22    23 ar  
    46    22    59 1   
    47    23    24 ar  
    48    23    60 1   
    49    24    25 ar  
    50    24    61 1   
    51    25    26 ar  
    52    25    62 1   
    53    26    63 1   
    54    27    28 1   
    55    27    64 1   
    56    27    65 1   
    57    28    29 ar  
    58    28    33 ar  
    59    29    30 ar  
    60    29    66 1   
    61    30    31 ar  
    62    30    67 1   
    63    31    32 ar  
    64    31    68 1   
    65    32    33 ar  
    66    32    69 1   
    67    33    70 1   
    68    34    35 ar  
    69    34    40 ar  
    70    35    36 ar  
    71    35    71 1   
    72    36    37 1   
    73    36    38 ar  
    74    37    72 1   
    75    37    73 1   
    76    38    39 ar  
    77    38    74 1   
    78    39    40 ar  
    79    39    75 1   
    80    40    76 1   
@<TRIPOS>SUBSTRUCTURE
     1 DMQ         1 TEMP              0 ****  ****    0 ROOT
