@<TRIPOS>MOLECULE
DMR
   13    12     1     0     0
SMALL
No Charge or Current Charge


@<TRIPOS>ATOM
      1 C1           1.8790     0.1120     0.0730 c          1 DMR       0.680000
      2 O1A          2.5660    -0.1780    -0.8990 o          1 DMR      -0.761500
      3 O1B          2.3340     0.6620     1.0670 o          1 DMR      -0.761500
      4 C2           0.3920    -0.4190     0.1090 c3         1 DMR       0.051300
      5 O2           0.2360    -1.6230    -0.6840 oh         1 DMR      -0.702000
      6 C3          -0.6140     0.6630    -0.3760 c3         1 DMR      -0.191400
      7 C4          -2.0350     0.3580     0.1300 c          1 DMR       0.721000
      8 O4A         -2.8080    -0.2410    -0.6050 o          1 DMR      -0.777000
      9 O4B         -2.3410     0.7370     1.2510 o          1 DMR      -0.777000
     10 H21          0.1700    -0.6400     1.1620 h1         1 DMR       0.038700
     11 HO21         1.0190    -1.6260    -1.2850 ho         1 DMR       0.443000
     12 H31         -0.2630     1.5950     0.0840 hc         1 DMR       0.018200
     13 H32         -0.5720     0.6790    -1.4730 hc         1 DMR       0.018200
@<TRIPOS>BOND
     1     1     2 1   
     2     1     3 1   
     3     1     4 1   
     4     4     5 1   
     5     4     6 1   
     6     4    10 1   
     7     5    11 1   
     8     6     7 1   
     9     6    12 1   
    10     6    13 1   
    11     7     8 1   
    12     7     9 1   
@<TRIPOS>SUBSTRUCTURE
     1 DMR         1 TEMP              0 ****  ****    0 ROOT
