@<TRIPOS>MOLECULE
DMR
   13    12     1     0     0
SMALL
bcc


@<TRIPOS>ATOM
      1 C1           1.8640     0.1120    -0.0800 c          1 DMR       0.890600
      2 O1A          2.5390    -0.6430    -0.8210 o          1 DMR      -0.866800
      3 O1B          2.2350     1.1790     0.4350 o          1 DMR      -0.866800
      4 C2           0.4240    -0.3650     0.1980 c3         1 DMR       0.028100
      5 O2           0.2300    -1.6210    -0.4110 oh         1 DMR      -0.639800
      6 C3          -0.5990     0.6450    -0.2980 c3         1 DMR      -0.191400
      7 C4          -2.0560     0.2710     0.0240 c          1 DMR       0.931600
      8 O4A         -2.9170     0.5720    -0.8290 o          1 DMR      -0.882300
      9 O4B         -2.2730    -0.2690     1.1280 o          1 DMR      -0.882300
     10 H21          0.3050    -0.4590     1.2870 h1         1 DMR       0.038700
     11 HO21         1.0780    -1.7480    -0.8750 ho         1 DMR       0.404000
     12 H31         -0.3870     1.6110     0.1710 hc         1 DMR       0.018200
     13 H32         -0.4790     0.7940    -1.3760 hc         1 DMR       0.018200
@<TRIPOS>BOND
     1     1     2 1   
     2     1     3 1   
     3     1     4 1   
     4     4     5 1   
     5     4     6 1   
     6     4    10 1   
     7     5    11 1   
     8     6     7 1   
     9     6    12 1   
    10     6    13 1   
    11     7     8 1   
    12     7     9 1   
@<TRIPOS>SUBSTRUCTURE
     1 DMR         1 TEMP              0 ****  ****    0 ROOT
