@<TRIPOS>MOLECULE
DMS
   10     9     1     0     0
SMALL
abcg2


@<TRIPOS>ATOM
      1 S           63.4390    46.2660   -11.8290 s4         1 DMS       0.173400
      2 O           64.2830    45.7610   -12.9750 o          1 DMS      -0.508000
      3 C1          64.5770    46.9980   -10.6340 c3         1 DMS      -0.064300
      4 C2          62.9790    44.8240   -10.8460 c3         1 DMS      -0.064300
      5 H11         64.0280    47.3100    -9.7470 h1         1 DMS       0.077200
      6 H12         65.3480    46.2750   -10.3700 h1         1 DMS       0.077200
      7 H13         65.0290    47.8700   -11.1030 h1         1 DMS       0.077200
      8 H21         62.4490    45.1450    -9.9510 h1         1 DMS       0.077200
      9 H22         62.3200    44.2070   -11.4540 h1         1 DMS       0.077200
     10 H23         63.8730    44.2610   -10.5790 h1         1 DMS       0.077200
@<TRIPOS>BOND
     1     1     2 2   
     2     1     3 1   
     3     1     4 1   
     4     3     5 1   
     5     3     6 1   
     6     3     7 1   
     7     4     8 1   
     8     4     9 1   
     9     4    10 1   
@<TRIPOS>SUBSTRUCTURE
     1 DMS         1 TEMP              0 ****  ****    0 ROOT
