@<TRIPOS>MOLECULE
DMS
   10     9     1     0     0
SMALL
No Charge or Current Charge


@<TRIPOS>ATOM
      1 S           63.4160    46.2860   -11.8470 s4         1 DMS       0.173400
      2 O           64.2350    45.7960   -13.0190 o          1 DMS      -0.508000
      3 C1          64.5960    47.0140   -10.6300 c3         1 DMS      -0.064300
      4 C2          62.9680    44.8030   -10.8450 c3         1 DMS      -0.064300
      5 H11         64.0370    47.3470    -9.7470 h1         1 DMS       0.077200
      6 H12         65.3350    46.2550   -10.3450 h1         1 DMS       0.077200
      7 H13         65.1010    47.8680   -11.0970 h1         1 DMS       0.077200
      8 H21         62.4020    45.1270    -9.9630 h1         1 DMS       0.077200
      9 H22         62.3510    44.1360   -11.4590 h1         1 DMS       0.077200
     10 H23         63.8840    44.2850   -10.5360 h1         1 DMS       0.077200
@<TRIPOS>BOND
     1     1     2 2   
     2     1     3 1   
     3     1     4 1   
     4     3     5 1   
     5     3     6 1   
     6     3     7 1   
     7     4     8 1   
     8     4     9 1   
     9     4    10 1   
@<TRIPOS>SUBSTRUCTURE
     1 DMS         1 TEMP              0 ****  ****    0 ROOT
