@<TRIPOS>MOLECULE
DMT
   35    34     1     0     0
SMALL
bcc


@<TRIPOS>ATOM
      1 N            5.3400    34.8710    19.3760 n7         1 DMT      -0.790200
      2 CN           4.6810    36.1600    19.3230 c3         1 DMT       0.177100
      3 CA           6.4610    34.6110    18.4910 c3         1 DMT       0.054500
      4 C            7.7640    35.3550    18.9250 c          1 DMT       0.946600
      5 CB           6.2780    34.7600    16.9680 c3         1 DMT       0.130100
      6 CG2          5.1870    33.9070    16.2740 c3         1 DMT      -0.074000
      7 CD1          5.3390    34.0710    14.7380 c3         1 DMT      -0.044200
      8 CD2          5.3800    32.4340    16.6450 c3         1 DMT      -0.075600
      9 CD3          3.7500    34.3200    16.5980 c3         1 DMT      -0.075600
     10 CE           6.7170    33.8600    14.1950 c2         1 DMT      -0.153200
     11 CZ           7.4000    34.7590    13.4890 c2         1 DMT      -0.181200
     12 CH           8.7750    34.5610    12.9410 c3         1 DMT      -0.049900
     13 O            7.7140    36.1160    19.9080 o          1 DMT      -0.832300
     14 OXT          8.7830    35.0840    18.2540 o          1 DMT      -0.832300
     15 OG1          6.1470    36.1360    16.6610 oh         1 DMT      -0.580800
     16 H            4.6540    34.1380    19.2690 hn         1 DMT       0.306800
     17 HCN1         3.9680    36.2240    20.1490 h1         1 DMT       0.016367
     18 HCN2         5.4100    36.9530    19.4650 h1         1 DMT       0.016367
     19 HCN3         4.1290    36.3710    18.4020 h1         1 DMT       0.016367
     20 HA           6.6970    33.5510    18.6450 h1         1 DMT       0.033700
     21 HB           7.2260    34.3880    16.5600 h1         1 DMT       0.060700
     22 HD12         4.6530    33.3560    14.2680 hc         1 DMT       0.032700
     23 HD13         4.9780    35.0610    14.4400 hc         1 DMT       0.032700
     24 HD21         4.7290    31.7980    16.0430 hc         1 DMT       0.027033
     25 HD22         6.4070    32.0990    16.4900 hc         1 DMT       0.027033
     26 HD23         5.1320    32.2520    17.6920 hc         1 DMT       0.027033
     27 HD31         3.0540    33.7670    15.9640 hc         1 DMT       0.027033
     28 HD32         3.4720    34.1100    17.6300 hc         1 DMT       0.027033
     29 HD33         3.5880    35.3810    16.4120 hc         1 DMT       0.027033
     30 HE           7.1810    32.8970    14.3960 ha         1 DMT       0.117000
     31 HZ           6.9350    35.7210    13.2790 ha         1 DMT       0.107000
     32 HH1          9.4670    35.3070    13.3380 hc         1 DMT       0.033700
     33 HH2          9.1690    33.5740    13.1840 hc         1 DMT       0.033700
     34 HH3          8.7890    34.6720    11.8550 hc         1 DMT       0.033700
     35 HG1          6.4080    36.2650    15.7440 ho         1 DMT       0.376000
@<TRIPOS>BOND
     1     1     2 1   
     2     1     3 1   
     3     1    16 1   
     4     2    17 1   
     5     2    18 1   
     6     2    19 1   
     7     3     4 1   
     8     3     5 1   
     9     3    20 1   
    10     4    13 1   
    11     4    14 1   
    12     5     6 1   
    13     5    15 1   
    14     5    21 1   
    15     6     7 1   
    16     6     8 1   
    17     6     9 1   
    18     7    10 1   
    19     7    22 1   
    20     7    23 1   
    21     8    24 1   
    22     8    25 1   
    23     8    26 1   
    24     9    27 1   
    25     9    28 1   
    26     9    29 1   
    27    10    11 2   
    28    10    30 1   
    29    11    12 1   
    30    11    31 1   
    31    12    32 1   
    32    12    33 1   
    33    12    34 1   
    34    15    35 1   
@<TRIPOS>SUBSTRUCTURE
     1 DMT         1 TEMP              0 ****  ****    0 ROOT
