@<TRIPOS>MOLECULE
DMT
   35    34     1     0     0
SMALL
No Charge or Current Charge


@<TRIPOS>ATOM
      1 N            5.2600    36.1850    19.0540 n7         1 DMT      -0.845400
      2 CN           6.4600    37.0430    19.1180 c3         1 DMT       0.177100
      3 CA           5.4700    34.7710    18.5430 c3         1 DMT       0.054500
      4 C            6.6320    33.9760    19.2710 c          1 DMT       0.736000
      5 CB           5.6060    34.7540    16.9680 c3         1 DMT       0.153300
      6 CG2          5.2540    33.4000    16.2180 c3         1 DMT      -0.074000
      7 CD1          5.4410    33.5730    14.6700 c3         1 DMT      -0.044200
      8 CD2          6.1700    32.2330    16.6890 c3         1 DMT      -0.075600
      9 CD3          3.7760    32.9740    16.4700 c3         1 DMT      -0.075600
     10 CE           6.8070    34.0890    14.2510 c2         1 DMT      -0.203200
     11 CZ           7.0390    35.2590    13.6370 c2         1 DMT      -0.231200
     12 CH           8.4010    35.7660    13.2150 c3         1 DMT      -0.049900
     13 O            7.7910    34.1250    18.8990 o          1 DMT      -0.727000
     14 OXT          6.3310    33.2480    20.2110 o          1 DMT      -0.727000
     15 OG1          4.7950    35.8130    16.4080 oh         1 DMT      -0.643000
     16 H            4.6260    36.6140    18.3690 hn         1 DMT       0.362000
     17 HCN1         6.1830    38.0630    19.4160 h1         1 DMT       0.016367
     18 HCN2         7.1800    36.6610    19.8540 h1         1 DMT       0.016367
     19 HCN3         6.9570    37.0980    18.1400 h1         1 DMT       0.016367
     20 HA           4.5520    34.2210    18.7790 h1         1 DMT       0.033700
     21 HB           6.6570    34.9830    16.7470 h1         1 DMT       0.060700
     22 HD12         5.2610    32.6100    14.1750 hc         1 DMT       0.032700
     23 HD13         4.6620    34.2390    14.2790 hc         1 DMT       0.032700
     24 HD21         6.0320    31.3470    16.0580 hc         1 DMT       0.027033
     25 HD22         7.2290    32.5130    16.6460 hc         1 DMT       0.027033
     26 HD23         5.9360    31.9310    17.7160 hc         1 DMT       0.027033
     27 HD31         3.5270    32.0780    15.8880 hc         1 DMT       0.027033
     28 HD32         3.5950    32.7340    17.5230 hc         1 DMT       0.027033
     29 HD33         3.0730    33.7630    16.1760 hc         1 DMT       0.027033
     30 HE           7.6350    33.4140    14.4760 ha         1 DMT       0.167000
     31 HZ           6.2170    35.9350    13.3950 ha         1 DMT       0.157000
     32 HH1          8.6330    36.7190    13.7060 hc         1 DMT       0.033700
     33 HH2          9.1960    35.0560    13.4730 hc         1 DMT       0.033700
     34 HH3          8.4390    35.9300    12.1310 hc         1 DMT       0.033700
     35 HG1          4.9370    35.7740    15.4400 ho         1 DMT       0.415000
@<TRIPOS>BOND
     1     1     2 1   
     2     1     3 1   
     3     1    16 1   
     4     2    17 1   
     5     2    18 1   
     6     2    19 1   
     7     3     4 1   
     8     3     5 1   
     9     3    20 1   
    10     4    13 1   
    11     4    14 1   
    12     5     6 1   
    13     5    15 1   
    14     5    21 1   
    15     6     7 1   
    16     6     8 1   
    17     6     9 1   
    18     7    10 1   
    19     7    22 1   
    20     7    23 1   
    21     8    24 1   
    22     8    25 1   
    23     8    26 1   
    24     9    27 1   
    25     9    28 1   
    26     9    29 1   
    27    10    11 2   
    28    10    30 1   
    29    11    12 1   
    30    11    31 1   
    31    12    32 1   
    32    12    33 1   
    33    12    34 1   
    34    15    35 1   
@<TRIPOS>SUBSTRUCTURE
     1 DMT         1 TEMP              0 ****  ****    0 ROOT
