@<TRIPOS>MOLECULE
DMU
   75    76     1     0     0
SMALL
No Charge or Current Charge


@<TRIPOS>ATOM
      1 C1          -0.6360    -2.0710     0.2600 c6         1 DMU       0.113300
      2 C2          -2.0810    -1.7250    -0.1850 c6         1 DMU       0.148300
      3 C3          -2.4550    -0.2900     0.3160 c6         1 DMU       0.150300
      4 C4          -1.3940     0.7240    -0.2110 c6         1 DMU       0.175300
      5 O5          -0.0620     0.3090     0.2010 os         1 DMU      -0.466000
      6 C6           0.3300    -0.9810    -0.3070 c6         1 DMU       0.366300
      7 O7          -3.7900     0.0970    -0.0940 os         1 DMU      -0.485000
      8 O16          1.6810    -1.2630     0.0960 os         1 DMU      -0.455000
      9 C18          2.6950    -0.4060    -0.4510 c3         1 DMU       0.165600
     10 C19          4.0560    -0.8970     0.0770 c3         1 DMU      -0.080400
     11 C22          5.2430    -0.0550    -0.4410 c3         1 DMU      -0.074400
     12 C25          6.6080    -0.5450     0.0870 c3         1 DMU      -0.073400
     13 C28          7.7950     0.2970    -0.4310 c3         1 DMU      -0.074400
     14 C31          9.1610    -0.1930     0.0980 c3         1 DMU      -0.074400
     15 C34         10.3470     0.6490    -0.4200 c3         1 DMU      -0.074400
     16 C37         11.7130     0.1590     0.1080 c3         1 DMU      -0.075400
     17 C40         12.8990     1.0010    -0.4090 c3         1 DMU      -0.075400
     18 C43         14.2620     0.5120     0.1170 c3         1 DMU      -0.088100
     19 O49         -0.2860    -3.4120    -0.1620 oh         1 DMU      -0.725000
     20 O55         -2.9810    -2.7500     0.2780 oh         1 DMU      -0.738000
     21 C57         -1.6540     2.1730     0.3170 c3         1 DMU       0.167600
     22 O61         -0.6640     3.1290    -0.1240 oh         1 DMU      -0.716000
     23 C5          -5.9390    -1.1800    -0.0750 c6         1 DMU       0.126300
     24 C7          -6.6790    -0.2090    -1.0390 c6         1 DMU       0.129300
     25 C8          -7.2690     0.9950    -0.2490 c6         1 DMU       0.147300
     26 C9          -6.1240     1.7020     0.5430 c6         1 DMU       0.168300
     27 O1          -5.4620     0.7470     1.4190 os         1 DMU      -0.453000
     28 C10         -4.8660    -0.3810     0.7440 c6         1 DMU       0.359300
     29 O2          -7.9370     1.8860    -1.1620 oh         1 DMU      -0.720000
     30 O3          -5.3710    -2.2840    -0.8240 oh         1 DMU      -0.736000
     31 O4          -7.7140    -0.9090    -1.7530 oh         1 DMU      -0.669000
     32 H1          -0.5900    -2.0080     1.3590 h1         1 DMU       0.067700
     33 H2          -2.0940    -1.7060    -1.2860 h1         1 DMU       0.061700
     34 H3          -2.4060    -0.2720     1.4150 h1         1 DMU       0.067700
     35 H4          -1.4340     0.7500    -1.3100 h1         1 DMU       0.061700
     36 H5           0.2750    -0.9780    -1.4060 h2         1 DMU       0.035700
     37 H6           2.6880    -0.4480    -1.5490 h1         1 DMU       0.036200
     38 H7           2.5370     0.6360    -0.1420 h1         1 DMU       0.036200
     39 H8           4.0440    -0.8700     1.1730 hc         1 DMU       0.051200
     40 H9           4.1980    -1.9440    -0.2200 hc         1 DMU       0.051200
     41 H10          5.2500    -0.0800    -1.5380 hc         1 DMU       0.039700
     42 H11          5.0970     0.9920    -0.1460 hc         1 DMU       0.039700
     43 H12          6.6010    -0.5200     1.1840 hc         1 DMU       0.038700
     44 H13          6.7540    -1.5920    -0.2080 hc         1 DMU       0.038700
     45 H14          7.8030     0.2720    -1.5280 hc         1 DMU       0.038200
     46 H15          7.6490     1.3440    -0.1350 hc         1 DMU       0.038200
     47 H16          9.1530    -0.1680     1.1950 hc         1 DMU       0.037200
     48 H17          9.3060    -1.2400    -0.1980 hc         1 DMU       0.037200
     49 H18         10.3550     0.6240    -1.5170 hc         1 DMU       0.037200
     50 H19         10.2010     1.6960    -0.1250 hc         1 DMU       0.037200
     51 H20         11.7050     0.1840     1.2050 hc         1 DMU       0.036700
     52 H21         11.8580    -0.8880    -0.1870 hc         1 DMU       0.036700
     53 H22         12.9120     0.9770    -1.5060 hc         1 DMU       0.036700
     54 H23         12.7580     2.0480    -0.1140 hc         1 DMU       0.036700
     55 H24         14.2940     0.5580     1.2130 hc         1 DMU       0.031367
     56 H25         14.4490    -0.5230    -0.1920 hc         1 DMU       0.031367
     57 H26         15.0710     1.1390    -0.2760 hc         1 DMU       0.031367
     58 H27          0.6920    -3.4920    -0.0390 ho         1 DMU       0.527000
     59 H28         -2.4080    -3.5600     0.3090 ho         1 DMU       0.533000
     60 H29         -2.6520     2.4870    -0.0190 h1         1 DMU       0.044200
     61 H30         -1.6800     2.1350     1.4150 h1         1 DMU       0.044200
     62 H31         -0.8760     3.9860     0.3140 ho         1 DMU       0.507000
     63 H32         -6.6710    -1.5680     0.6490 h1         1 DMU       0.062700
     64 H33         -5.9380     0.1830    -1.7530 h1         1 DMU       0.061700
     65 H34         -7.9950     0.6040     0.4810 h1         1 DMU       0.051700
     66 H35         -5.3880     2.1070    -0.1670 h1         1 DMU       0.071700
     67 H36         -4.4630    -1.0600     1.5110 h2         1 DMU       0.084700
     68 H37         -8.3800     1.2870    -1.8120 ho         1 DMU       0.526000
     69 H38         -4.4620    -2.4530    -0.4290 ho         1 DMU       0.537000
     70 H39         -7.3280    -1.7980    -1.9360 ho         1 DMU       0.465000
     71 H42         -6.0570     4.2080     2.7580 ho         1 DMU       0.504000
     72 C11         -6.6480     2.8900     1.4170 c3         1 DMU       0.169600
     73 O6          -5.6150     3.5290     2.1970 oh         1 DMU      -0.719000
     74 H40         -7.1190     3.6250     0.7510 h1         1 DMU       0.037200
     75 H41         -7.4350     2.5030     2.0800 h1         1 DMU       0.037200
@<TRIPOS>BOND
     1     1     2 1   
     2     1     6 1   
     3     1    19 1   
     4     1    32 1   
     5     2     3 1   
     6     2    20 1   
     7     2    33 1   
     8     3     4 1   
     9     3     7 1   
    10     3    34 1   
    11     4     5 1   
    12     4    21 1   
    13     4    35 1   
    14     5     6 1   
    15     6     8 1   
    16     6    36 1   
    17     7    28 1   
    18     8     9 1   
    19     9    10 1   
    20     9    37 1   
    21     9    38 1   
    22    10    11 1   
    23    10    39 1   
    24    10    40 1   
    25    11    12 1   
    26    11    41 1   
    27    11    42 1   
    28    12    13 1   
    29    12    43 1   
    30    12    44 1   
    31    13    14 1   
    32    13    45 1   
    33    13    46 1   
    34    14    15 1   
    35    14    47 1   
    36    14    48 1   
    37    15    16 1   
    38    15    49 1   
    39    15    50 1   
    40    16    17 1   
    41    16    51 1   
    42    16    52 1   
    43    17    18 1   
    44    17    53 1   
    45    17    54 1   
    46    18    55 1   
    47    18    56 1   
    48    18    57 1   
    49    19    58 1   
    50    20    59 1   
    51    21    22 1   
    52    21    60 1   
    53    21    61 1   
    54    22    62 1   
    55    23    24 1   
    56    23    28 1   
    57    23    30 1   
    58    23    63 1   
    59    24    25 1   
    60    24    31 1   
    61    24    64 1   
    62    25    26 1   
    63    25    29 1   
    64    25    65 1   
    65    26    27 1   
    66    26    66 1   
    67    26    72 1   
    68    27    28 1   
    69    28    67 1   
    70    29    68 1   
    71    30    69 1   
    72    31    70 1   
    73    71    73 1   
    74    72    73 1   
    75    72    74 1   
    76    72    75 1   
@<TRIPOS>SUBSTRUCTURE
     1 DMU         1 TEMP              0 ****  ****    0 ROOT
