@<TRIPOS>MOLECULE
DMU
   75    76     1     0     0
SMALL
bcc


@<TRIPOS>ATOM
      1 C1          -0.5040    -2.0570     0.5420 c6         1 DMU       0.090100
      2 C2          -1.9130    -1.7880     0.0400 c6         1 DMU       0.125100
      3 C3          -2.4630    -0.4910     0.6230 c6         1 DMU       0.127100
      4 C4          -1.4700     0.6570     0.4040 c6         1 DMU       0.152100
      5 O5          -0.1970     0.2880     0.8880 os         1 DMU      -0.419600
      6 C6           0.3500    -0.8300     0.2350 c6         1 DMU       0.319900
      7 O7          -3.6710    -0.1700    -0.0300 os         1 DMU      -0.438600
      8 O16          1.6230    -1.0430     0.7090 os         1 DMU      -0.408600
      9 C18          2.6310    -0.2360     0.1160 c3         1 DMU       0.142400
     10 C19          3.9890    -0.7150     0.5810 c3         1 DMU      -0.080400
     11 C22          5.1150     0.0500    -0.1050 c3         1 DMU      -0.074400
     12 C25          6.5000    -0.4040     0.3390 c3         1 DMU      -0.073400
     13 C28          7.6260     0.3280    -0.3800 c3         1 DMU      -0.074400
     14 C31          9.0130    -0.1230     0.0590 c3         1 DMU      -0.074400
     15 C34         10.1400     0.6000    -0.6690 c3         1 DMU      -0.074400
     16 C37         11.5270     0.1490    -0.2300 c3         1 DMU      -0.075400
     17 C40         12.6550     0.8700    -0.9580 c3         1 DMU      -0.075400
     18 C43         14.0370     0.4120    -0.5110 c3         1 DMU      -0.088100
     19 O49         -0.0350    -3.2050    -0.1180 oh         1 DMU      -0.602800
     20 O55         -2.8000    -2.8320     0.3890 oh         1 DMU      -0.615800
     21 C57         -1.8950     1.9130     1.1350 c3         1 DMU       0.144400
     22 O61         -1.0260     2.9590     0.7700 oh         1 DMU      -0.593800
     23 C5          -5.8130    -1.1610    -0.3860 c6         1 DMU       0.103100
     24 C7          -6.2640    -0.1620    -1.4430 c6         1 DMU       0.106100
     25 C8          -6.8810     1.0590    -0.7760 c6         1 DMU       0.124100
     26 C9          -5.8750     1.6530     0.2080 c6         1 DMU       0.145100
     27 O1          -5.4740     0.6640     1.1450 os         1 DMU      -0.406600
     28 C10         -4.8740    -0.4750     0.6130 c6         1 DMU       0.312900
     29 O2          -7.2130     2.0500    -1.7170 oh         1 DMU      -0.597800
     30 O3          -5.2310    -2.2700    -1.0200 oh         1 DMU      -0.613800
     31 O4          -7.2380    -0.7110    -2.3030 oh         1 DMU      -0.606800
     32 H1          -0.5260    -2.1990     1.6330 h1         1 DMU       0.067700
     33 H2          -1.8690    -1.6730    -1.0540 h1         1 DMU       0.061700
     34 H3          -2.6220    -0.6210     1.7030 h1         1 DMU       0.067700
     35 H4          -1.4190     0.8680    -0.6770 h1         1 DMU       0.061700
     36 H5           0.3600    -0.6550    -0.8580 h2         1 DMU       0.035700
     37 H6           2.5630    -0.3090    -0.9780 h1         1 DMU       0.036200
     38 H7           2.4890     0.8180     0.3800 h1         1 DMU       0.036200
     39 H8           4.0710    -0.5990     1.6660 hc         1 DMU       0.051200
     40 H9           4.0900    -1.7830     0.3660 hc         1 DMU       0.051200
     41 H10          5.0270    -0.0720    -1.1900 hc         1 DMU       0.039700
     42 H11          5.0050     1.1220     0.0890 hc         1 DMU       0.039700
     43 H12          6.6010    -0.2590     1.4200 hc         1 DMU       0.038700
     44 H13          6.6000    -1.4810     0.1670 hc         1 DMU       0.038700
     45 H14          7.5220     0.1790    -1.4600 hc         1 DMU       0.038200
     46 H15          7.5250     1.4060    -0.2120 hc         1 DMU       0.038200
     47 H16          9.1200     0.0310     1.1390 hc         1 DMU       0.037200
     48 H17          9.1110    -1.2020    -0.1020 hc         1 DMU       0.037200
     49 H18         10.0330     0.4440    -1.7480 hc         1 DMU       0.037200
     50 H19         10.0410     1.6790    -0.5090 hc         1 DMU       0.037200
     51 H20         11.6340     0.3060     0.8500 hc         1 DMU       0.036700
     52 H21         11.6250    -0.9300    -0.3890 hc         1 DMU       0.036700
     53 H22         12.5470     0.7140    -2.0360 hc         1 DMU       0.036700
     54 H23         12.5560     1.9490    -0.7980 hc         1 DMU       0.036700
     55 H24         14.1830     0.5870     0.5560 hc         1 DMU       0.031367
     56 H25         14.1740    -0.6550    -0.6900 hc         1 DMU       0.031367
     57 H26         14.8280     0.9410    -1.0440 hc         1 DMU       0.031367
     58 H27          0.7780    -3.4930     0.3080 ho         1 DMU       0.428000
     59 H28         -2.4540    -3.6590     0.0330 ho         1 DMU       0.434000
     60 H29         -2.9340     2.1430     0.8780 h1         1 DMU       0.044200
     61 H30         -1.8680     1.7190     2.2160 h1         1 DMU       0.044200
     62 H31         -1.3050     3.7530     1.2340 ho         1 DMU       0.408000
     63 H32         -6.6990    -1.4720     0.1900 h1         1 DMU       0.062700
     64 H33         -5.3840     0.1680    -2.0160 h1         1 DMU       0.061700
     65 H34         -7.7720     0.7350    -0.2130 h1         1 DMU       0.051700
     66 H35         -5.0090     2.0190    -0.3600 h1         1 DMU       0.071700
     67 H36         -4.6990    -1.1340     1.4700 h2         1 DMU       0.084700
     68 H37         -7.7840     1.6480    -2.3790 ho         1 DMU       0.427000
     69 H38         -4.4600    -2.5760    -0.5140 ho         1 DMU       0.438000
     70 H39         -6.8040    -1.3220    -2.9050 ho         1 DMU       0.426000
     71 H42         -5.7750     4.1620     2.2030 ho         1 DMU       0.405000
     72 C11         -6.4520     2.8080     0.9990 c3         1 DMU       0.146400
     73 O6          -5.4320     3.3610     1.7960 oh         1 DMU      -0.596800
     74 H40         -6.8580     3.5410     0.2940 h1         1 DMU       0.037200
     75 H41         -7.2940     2.4430     1.6040 h1         1 DMU       0.037200
@<TRIPOS>BOND
     1     1     2 1   
     2     1     6 1   
     3     1    19 1   
     4     1    32 1   
     5     2     3 1   
     6     2    20 1   
     7     2    33 1   
     8     3     4 1   
     9     3     7 1   
    10     3    34 1   
    11     4     5 1   
    12     4    21 1   
    13     4    35 1   
    14     5     6 1   
    15     6     8 1   
    16     6    36 1   
    17     7    28 1   
    18     8     9 1   
    19     9    10 1   
    20     9    37 1   
    21     9    38 1   
    22    10    11 1   
    23    10    39 1   
    24    10    40 1   
    25    11    12 1   
    26    11    41 1   
    27    11    42 1   
    28    12    13 1   
    29    12    43 1   
    30    12    44 1   
    31    13    14 1   
    32    13    45 1   
    33    13    46 1   
    34    14    15 1   
    35    14    47 1   
    36    14    48 1   
    37    15    16 1   
    38    15    49 1   
    39    15    50 1   
    40    16    17 1   
    41    16    51 1   
    42    16    52 1   
    43    17    18 1   
    44    17    53 1   
    45    17    54 1   
    46    18    55 1   
    47    18    56 1   
    48    18    57 1   
    49    19    58 1   
    50    20    59 1   
    51    21    22 1   
    52    21    60 1   
    53    21    61 1   
    54    22    62 1   
    55    23    24 1   
    56    23    28 1   
    57    23    30 1   
    58    23    63 1   
    59    24    25 1   
    60    24    31 1   
    61    24    64 1   
    62    25    26 1   
    63    25    29 1   
    64    25    65 1   
    65    26    27 1   
    66    26    66 1   
    67    26    72 1   
    68    27    28 1   
    69    28    67 1   
    70    29    68 1   
    71    30    69 1   
    72    31    70 1   
    73    71    73 1   
    74    72    73 1   
    75    72    74 1   
    76    72    75 1   
@<TRIPOS>SUBSTRUCTURE
     1 DMU         1 TEMP              0 ****  ****    0 ROOT
