@<TRIPOS>MOLECULE
DMV
   21    20     1     0     0
SMALL
No Charge or Current Charge


@<TRIPOS>ATOM
      1 C1          -0.1680     0.2660    -1.7690 c          1 DMV       0.689000
      2 C2           0.5730     0.5930    -0.4210 c3         1 DMV      -0.008700
      3 C3          -0.1050    -0.0750     0.8340 c3         1 DMV       0.196000
      4 C32         -0.0290    -1.6250     0.7600 c3         1 DMV      -0.101100
      5 C4           0.5280     0.4740     2.1540 c3         1 DMV      -0.064400
      6 C5          -0.0920    -0.0340     3.4790 c3         1 DMV      -0.077100
      7 O11         -1.3870     0.3720    -1.8110 o          1 DMV      -0.717500
      8 O12          0.5150    -0.1110    -2.7140 o          1 DMV      -0.717500
      9 O21          1.9900     0.2630    -0.5060 oh         1 DMV      -0.701000
     10 O31         -1.4920     0.2850     0.8270 oh         1 DMV      -0.721000
     11 H2           0.4770     1.6810    -0.3010 h1         1 DMV       0.037700
     12 H323         1.0070    -1.9710     0.8600 hc         1 DMV       0.029033
     13 H322        -0.6180    -2.0920     1.5580 hc         1 DMV       0.029033
     14 H321        -0.4190    -1.9980    -0.1940 hc         1 DMV       0.029033
     15 H42          0.4670     1.5690     2.1480 hc         1 DMV       0.036700
     16 H41          1.5980     0.2300     2.1700 hc         1 DMV       0.036700
     17 H53          0.3920     0.4550     4.3320 hc         1 DMV       0.018033
     18 H52         -1.1650     0.1890     3.5280 hc         1 DMV       0.018033
     19 H51          0.0460    -1.1150     3.5930 hc         1 DMV       0.018033
     20 H21          2.1230    -0.0230    -1.4450 ho         1 DMV       0.471000
     21 H31         -1.7260     0.3370    -0.1410 ho         1 DMV       0.499000
@<TRIPOS>BOND
     1     1     2 1   
     2     1     7 1   
     3     1     8 1   
     4     2     3 1   
     5     2     9 1   
     6     2    11 1   
     7     3     4 1   
     8     3     5 1   
     9     3    10 1   
    10     4    12 1   
    11     4    13 1   
    12     4    14 1   
    13     5     6 1   
    14     5    15 1   
    15     5    16 1   
    16     6    17 1   
    17     6    18 1   
    18     6    19 1   
    19     9    20 1   
    20    10    21 1   
@<TRIPOS>SUBSTRUCTURE
     1 DMV         1 TEMP              0 ****  ****    0 ROOT
