@<TRIPOS>MOLECULE
DMV
   21    20     1     0     0
SMALL
abcg2


@<TRIPOS>ATOM
      1 C1          -0.1110     0.1960    -1.7130 c          1 DMV       0.689000
      2 C2           0.5570     0.6180    -0.3870 c3         1 DMV      -0.008700
      3 C3          -0.1240    -0.0540     0.8330 c3         1 DMV       0.196000
      4 C32         -0.0280    -1.5780     0.7310 c3         1 DMV      -0.101100
      5 C4           0.5380     0.4580     2.1160 c3         1 DMV      -0.064400
      6 C5          -0.0850    -0.0500     3.4110 c3         1 DMV      -0.077100
      7 O11         -1.3550     0.3190    -1.7950 o          1 DMV      -0.717500
      8 O12          0.6550    -0.2380    -2.5920 o          1 DMV      -0.717500
      9 O21          1.9270     0.3280    -0.4440 oh         1 DMV      -0.701000
     10 O31         -1.4790     0.3570     0.8660 oh         1 DMV      -0.721000
     11 H2           0.4070     1.7050    -0.2710 h1         1 DMV       0.037700
     12 H323         1.0090    -1.9150     0.7120 hc         1 DMV       0.029033
     13 H322        -0.5150    -2.0570     1.5810 hc         1 DMV       0.029033
     14 H321        -0.5190    -1.9520    -0.1700 hc         1 DMV       0.029033
     15 H42          0.4930     1.5520     2.1060 hc         1 DMV       0.036700
     16 H41          1.5980     0.1970     2.0980 hc         1 DMV       0.036700
     17 H53          0.3940     0.4200     4.2710 hc         1 DMV       0.018033
     18 H52         -1.1500     0.1760     3.4630 hc         1 DMV       0.018033
     19 H51          0.0330    -1.1280     3.5300 hc         1 DMV       0.018033
     20 H21          2.0330    -0.0540    -1.3340 ho         1 DMV       0.471000
     21 H31         -1.7640     0.3720    -0.0710 ho         1 DMV       0.499000
@<TRIPOS>BOND
     1     1     2 1   
     2     1     7 1   
     3     1     8 1   
     4     2     3 1   
     5     2     9 1   
     6     2    11 1   
     7     3     4 1   
     8     3     5 1   
     9     3    10 1   
    10     4    12 1   
    11     4    13 1   
    12     4    14 1   
    13     5     6 1   
    14     5    15 1   
    15     5    16 1   
    16     6    17 1   
    17     6    18 1   
    18     6    19 1   
    19     9    20 1   
    20    10    21 1   
@<TRIPOS>SUBSTRUCTURE
     1 DMV         1 TEMP              0 ****  ****    0 ROOT
