@<TRIPOS>MOLECULE
DMW
   24    25     1     0     0
SMALL
abcg2


@<TRIPOS>ATOM
      1 C5           0.6740     0.0190     1.7360 cc         1 DMW      -0.137900
      2 C5M          1.4430     0.0290     3.0180 c3         1 DMW      -0.058900
      3 C4           1.4460     0.0020     0.4680 c          1 DMW       0.576900
      4 O4           2.6600    -0.0120     0.4800 o          1 DMW      -0.507100
      5 C3           0.7040     0.0010    -0.8140 ca         1 DMW      -0.134600
      6 C2          -0.6900     0.0050    -0.8190 ca         1 DMW      -0.134600
      7 C1          -1.4390     0.0120     0.4590 c          1 DMW       0.576900
      8 O1          -2.6540     0.0130     0.4640 o          1 DMW      -0.507100
      9 C6          -0.6740     0.0180     1.7320 cd         1 DMW      -0.137900
     10 C3A          1.4010    -0.0030    -2.0180 ca         1 DMW      -0.066000
     11 C3B          0.7090    -0.0040    -3.2190 ca         1 DMW      -0.098000
     12 C3C         -0.6800    -0.0020    -3.2230 ca         1 DMW      -0.098000
     13 C3D         -1.3790     0.0030    -2.0260 ca         1 DMW      -0.066000
     14 C6M         -1.4510     0.0290     3.0090 c3         1 DMW      -0.058900
     15 H5M1         2.5150     0.0870     2.8520 hc         1 DMW       0.055533
     16 H5M2         1.1500     0.8760     3.6400 hc         1 DMW       0.055533
     17 H5M3         1.2400    -0.8730     3.5990 hc         1 DMW       0.055533
     18 H3A          2.4820    -0.0060    -2.0180 ha         1 DMW       0.138000
     19 H3B          1.2550    -0.0070    -4.1530 ha         1 DMW       0.121000
     20 H3C         -1.2200    -0.0040    -4.1600 ha         1 DMW       0.121000
     21 H3D         -2.4610     0.0050    -2.0330 ha         1 DMW       0.138000
     22 H6M1        -2.5220    -0.0150     2.8370 hc         1 DMW       0.055533
     23 H6M2        -1.1750    -0.8180     3.6400 hc         1 DMW       0.055533
     24 H6M3        -1.2400     0.9330     3.5840 hc         1 DMW       0.055533
@<TRIPOS>BOND
     1     1     2 1   
     2     1     3 1   
     3     1     9 2   
     4     2    15 1   
     5     2    16 1   
     6     2    17 1   
     7     3     4 2   
     8     3     5 1   
     9     5     6 ar  
    10     5    10 ar  
    11     6     7 1   
    12     6    13 ar  
    13     7     8 2   
    14     7     9 1   
    15     9    14 1   
    16    10    11 ar  
    17    10    18 1   
    18    11    12 ar  
    19    11    19 1   
    20    12    13 ar  
    21    12    20 1   
    22    13    21 1   
    23    14    22 1   
    24    14    23 1   
    25    14    24 1   
@<TRIPOS>SUBSTRUCTURE
     1 DMW         1 TEMP              0 ****  ****    0 ROOT
