@<TRIPOS>MOLECULE
DMW
   24    25     1     0     0
SMALL
No Charge or Current Charge


@<TRIPOS>ATOM
      1 C5           0.6910     0.0030     1.7640 cc         1 DMW      -0.137900
      2 C5M          1.5260     0.0030     3.0360 c3         1 DMW      -0.058900
      3 C4           1.4840    -0.0660     0.4960 c          1 DMW       0.576900
      4 O4           2.7080    -0.1450     0.4850 o          1 DMW      -0.507100
      5 C3           0.7110    -0.0330    -0.8020 ca         1 DMW      -0.134600
      6 C2          -0.7020     0.0380    -0.8120 ca         1 DMW      -0.134600
      7 C1          -1.4810     0.0760     0.4780 c          1 DMW       0.576900
      8 O1          -2.7060     0.1390     0.4580 o          1 DMW      -0.507100
      9 C6          -0.7030     0.0400     1.7590 cd         1 DMW      -0.137900
     10 C3A          1.4090    -0.0730    -2.0330 ca         1 DMW      -0.066000
     11 C3B          0.7170    -0.0420    -3.2530 ca         1 DMW      -0.098000
     12 C3C         -0.6830     0.0290    -3.2610 ca         1 DMW      -0.098000
     13 C3D         -1.3880     0.0680    -2.0490 ca         1 DMW      -0.066000
     14 C6M         -1.5350     0.0620     3.0350 c3         1 DMW      -0.058900
     15 H5M1         2.4860     0.5160     2.9040 hc         1 DMW       0.055533
     16 H5M2         1.0190     0.5220     3.8580 hc         1 DMW       0.055533
     17 H5M3         1.7350    -1.0220     3.3650 hc         1 DMW       0.055533
     18 H3A          2.4960    -0.1280    -2.0500 ha         1 DMW       0.138000
     19 H3B          1.2660    -0.0730    -4.1920 ha         1 DMW       0.121000
     20 H3C         -1.2210     0.0530    -4.2060 ha         1 DMW       0.121000
     21 H3D         -2.4750     0.1220    -2.0770 ha         1 DMW       0.138000
     22 H6M1        -2.5400    -0.3520     2.8950 hc         1 DMW       0.055533
     23 H6M2        -1.0730    -0.5370     3.8280 hc         1 DMW       0.055533
     24 H6M3        -1.6460     1.0860     3.4100 hc         1 DMW       0.055533
@<TRIPOS>BOND
     1     1     2 1   
     2     1     3 1   
     3     1     9 2   
     4     2    15 1   
     5     2    16 1   
     6     2    17 1   
     7     3     4 2   
     8     3     5 1   
     9     5     6 ar  
    10     5    10 ar  
    11     6     7 1   
    12     6    13 ar  
    13     7     8 2   
    14     7     9 1   
    15     9    14 1   
    16    10    11 ar  
    17    10    18 1   
    18    11    12 ar  
    19    11    19 1   
    20    12    13 ar  
    21    12    20 1   
    22    13    21 1   
    23    14    22 1   
    24    14    23 1   
    25    14    24 1   
@<TRIPOS>SUBSTRUCTURE
     1 DMW         1 TEMP              0 ****  ****    0 ROOT
