@<TRIPOS>MOLECULE
DMX
   36    36     1     0     0
SMALL
abcg2


@<TRIPOS>ATOM
      1 C1           5.9620     0.0100     0.5230 ca         1 DMX      -0.072000
      2 C2           5.3150     1.2060     0.2430 ca         1 DMX      -0.103000
      3 C3           4.0300     1.1940    -0.2790 ca         1 DMX      -0.086000
      4 C4           3.3740    -0.0120    -0.5160 ca         1 DMX      -0.156300
      5 C5           4.0390    -1.2070    -0.2520 ca         1 DMX      -0.086000
      6 C6           5.3240    -1.1980     0.2700 ca         1 DMX      -0.103000
      7 C7           1.9960    -0.0220    -1.1040 c3         1 DMX       0.155900
      8 N8           0.8630    -0.0200    -0.0920 n4         1 DMX      -0.500000
      9 C9          -0.4120    -0.0090    -0.8980 c3         1 DMX       0.099600
     10 C10         -2.8750     0.0000    -1.0620 c3         1 DMX      -0.363400
     11 S11         -4.4600     0.0280    -0.2000 s6         1 DMX       1.311600
     12 C12          0.9430     1.1880     0.7710 c3         1 DMX       0.076900
     13 C13          0.9310    -1.2360     0.7600 c3         1 DMX       0.076900
     14 O14         -4.4850    -1.1970     0.6240 o          1 DMX      -0.674533
     15 O15         -4.4500     1.2660     0.6050 o          1 DMX      -0.674533
     16 O16         -5.4770     0.0340    -1.2670 o          1 DMX      -0.674533
     17 C17         -1.7000    -0.0100    -0.0950 c3         1 DMX      -0.054400
     18 H1           6.9650     0.0180     0.9290 ha         1 DMX       0.131000
     19 H2           5.8130     2.1500     0.4240 ha         1 DMX       0.131500
     20 H3           3.5390     2.1310    -0.5110 ha         1 DMX       0.117500
     21 H5           3.5550    -2.1530    -0.4630 ha         1 DMX       0.117500
     22 H6           5.8290    -2.1330     0.4720 ha         1 DMX       0.131500
     23 H71          1.8450    -0.9080    -1.7210 hx         1 DMX       0.091700
     24 H72          1.8380     0.8540    -1.7330 hx         1 DMX       0.091700
     25 H91         -0.3630     0.8770    -1.5320 hx         1 DMX       0.081700
     26 H92         -0.3700    -0.8880    -1.5440 hx         1 DMX       0.081700
     27 H101        -2.8450     0.8790    -1.7090 h1         1 DMX       0.076700
     28 H102        -2.8680    -0.8860    -1.7000 h1         1 DMX       0.076700
     29 H121         1.8820     1.1770     1.3170 hx         1 DMX       0.092367
     30 H122         0.8860     2.0790     0.1520 hx         1 DMX       0.092367
     31 H123         0.1260     1.1790     1.4840 hx         1 DMX       0.092367
     32 H131         0.1190    -1.2210     1.4790 hx         1 DMX       0.092367
     33 H132         0.8550    -2.1210     0.1320 hx         1 DMX       0.092367
     34 H133         1.8740    -1.2440     1.2980 hx         1 DMX       0.092367
     35 H171        -1.7710    -0.8950     0.5380 hc         1 DMX       0.072700
     36 H172        -1.7640     0.8690     0.5470 hc         1 DMX       0.072700
@<TRIPOS>BOND
     1     1     2 ar  
     2     1     6 ar  
     3     1    18 1   
     4     2     3 ar  
     5     2    19 1   
     6     3     4 ar  
     7     3    20 1   
     8     4     5 ar  
     9     4     7 1   
    10     5     6 ar  
    11     5    21 1   
    12     6    22 1   
    13     7     8 1   
    14     7    23 1   
    15     7    24 1   
    16     8     9 1   
    17     8    12 1   
    18     8    13 1   
    19     9    17 1   
    20     9    25 1   
    21     9    26 1   
    22    10    11 1   
    23    10    17 1   
    24    10    27 1   
    25    10    28 1   
    26    11    14 1   
    27    11    15 1   
    28    11    16 1   
    29    12    29 1   
    30    12    30 1   
    31    12    31 1   
    32    13    32 1   
    33    13    33 1   
    34    13    34 1   
    35    17    35 1   
    36    17    36 1   
@<TRIPOS>SUBSTRUCTURE
     1 DMX         1 TEMP              0 ****  ****    0 ROOT
