@<TRIPOS>MOLECULE
DMX
   36    36     1     0     0
SMALL
No Charge or Current Charge


@<TRIPOS>ATOM
      1 C1           6.0320    -0.0120     0.5610 ca         1 DMX      -0.072000
      2 C2           5.3870     1.2040     0.2810 ca         1 DMX      -0.103000
      3 C3           4.0940     1.2050    -0.2700 ca         1 DMX      -0.086000
      4 C4           3.4360    -0.0110    -0.5370 ca         1 DMX      -0.156300
      5 C5           4.0900    -1.2280    -0.2630 ca         1 DMX      -0.086000
      6 C6           5.3830    -1.2290     0.2880 ca         1 DMX      -0.103000
      7 C7           2.0350    -0.0110    -1.1330 c3         1 DMX       0.155900
      8 N8           0.8780    -0.0060    -0.1220 n4         1 DMX      -0.500000
      9 C9          -0.4410    -0.0060    -0.9120 c3         1 DMX       0.099600
     10 C10         -3.0010    -0.0020    -1.0510 c3         1 DMX      -0.363400
     11 S11         -4.5860     0.0030    -0.1760 s6         1 DMX       1.311600
     12 C12          0.9650     1.2520     0.7550 c3         1 DMX       0.076900
     13 C13          0.9610    -1.2600     0.7620 c3         1 DMX       0.076900
     14 O14         -4.5500    -1.2330     0.6190 o          1 DMX      -0.674533
     15 O15         -4.5460     1.2420     0.6130 o          1 DMX      -0.674533
     16 O16         -5.5740     0.0010    -1.2630 o          1 DMX      -0.674533
     17 C17         -1.7650    -0.0020    -0.1170 c3         1 DMX      -0.054400
     18 H1           7.0330    -0.0130     0.9870 ha         1 DMX       0.131000
     19 H2           5.8900     2.1460     0.4890 ha         1 DMX       0.131500
     20 H3           3.6030     2.1510    -0.4870 ha         1 DMX       0.117500
     21 H5           3.5960    -2.1740    -0.4740 ha         1 DMX       0.117500
     22 H6           5.8830    -2.1710     0.5010 ha         1 DMX       0.131500
     23 H71          1.9090    -0.8920    -1.7670 hx         1 DMX       0.091700
     24 H72          1.9120     0.8670    -1.7720 hx         1 DMX       0.091700
     25 H91         -0.4300     0.8730    -1.5590 hx         1 DMX       0.081700
     26 H92         -0.4330    -0.8900    -1.5540 hx         1 DMX       0.081700
     27 H101        -3.0030     0.8890    -1.6880 h1         1 DMX       0.076700
     28 H102        -3.0060    -0.8970    -1.6830 h1         1 DMX       0.076700
     29 H121         1.9190     1.2530     1.2850 hx         1 DMX       0.092367
     30 H122         0.8950     2.1390     0.1210 hx         1 DMX       0.092367
     31 H123         0.1470     1.2480     1.4770 hx         1 DMX       0.092367
     32 H131         0.1430    -1.2490     1.4850 hx         1 DMX       0.092367
     33 H132         0.8880    -2.1490     0.1340 hx         1 DMX       0.092367
     34 H133         1.9150    -1.2600     1.2930 hx         1 DMX       0.092367
     35 H171        -1.7990    -0.8820     0.5350 hc         1 DMX       0.072700
     36 H172        -1.7960     0.8830     0.5300 hc         1 DMX       0.072700
@<TRIPOS>BOND
     1     1     2 ar  
     2     1     6 ar  
     3     1    18 1   
     4     2     3 ar  
     5     2    19 1   
     6     3     4 ar  
     7     3    20 1   
     8     4     5 ar  
     9     4     7 1   
    10     5     6 ar  
    11     5    21 1   
    12     6    22 1   
    13     7     8 1   
    14     7    23 1   
    15     7    24 1   
    16     8     9 1   
    17     8    12 1   
    18     8    13 1   
    19     9    17 1   
    20     9    25 1   
    21     9    26 1   
    22    10    11 1   
    23    10    17 1   
    24    10    27 1   
    25    10    28 1   
    26    11    14 1   
    27    11    15 1   
    28    11    16 1   
    29    12    29 1   
    30    12    30 1   
    31    12    31 1   
    32    13    32 1   
    33    13    33 1   
    34    13    34 1   
    35    17    35 1   
    36    17    36 1   
@<TRIPOS>SUBSTRUCTURE
     1 DMX         1 TEMP              0 ****  ****    0 ROOT
