@<TRIPOS>MOLECULE
DMY
   62    64     1     0     0
SMALL
abcg2


@<TRIPOS>ATOM
      1 C1          10.2870    -2.9940    19.7250 c          1 DMY       0.601900
      2 O1          10.9980    -3.4370    20.6070 o          1 DMY      -0.594100
      3 N1          10.6820    -2.1500    18.7560 ns         1 DMY      -0.388100
      4 C2          11.9690    -1.6480    18.5720 cc         1 DMY      -0.030400
      5 C3          12.3560    -0.8570    17.4760 cc         1 DMY      -0.183000
      6 C4          13.6990    -0.5630    17.6380 cd         1 DMY      -0.233600
      7 N2          14.1230    -1.1560    18.7910 na         1 DMY       0.075000
      8 C5          13.0850    -1.8120    19.3700 cd         1 DMY      -0.179000
      9 C6          15.4460    -1.1120    19.3840 c3         1 DMY       0.058900
     10 C7          14.5950     0.1760    16.7390 c          1 DMY       0.646700
     11 O2          15.8080     0.0190    16.7310 o          1 DMY      -0.608100
     12 N3          13.9650     1.0360    15.9040 ns         1 DMY      -0.371100
     13 C8          14.5650     1.7550    14.8740 cc         1 DMY      -0.021400
     14 C9          13.8450     2.5490    13.9620 cc         1 DMY      -0.185000
     15 C10         14.7610     3.0950    13.0810 cd         1 DMY      -0.232600
     16 N4          16.0010     2.6500    13.4360 na         1 DMY       0.074000
     17 C11         15.8990     1.8440    14.5240 cd         1 DMY      -0.178000
     18 C12         17.2760     2.9810    12.8290 c3         1 DMY       0.058900
     19 C13         14.5200     3.9460    11.9100 c          1 DMY       0.645700
     20 O3          15.3050     4.0300    10.9750 o          1 DMY      -0.609100
     21 N5          13.3470     4.6210    11.9420 ns         1 DMY      -0.370100
     22 C14         12.8480     5.4370    10.9300 cc         1 DMY      -0.022400
     23 C15         11.6480     6.1630    11.0420 cc         1 DMY      -0.190000
     24 C16         11.4660     6.8440     9.8530 cd         1 DMY      -0.231600
     25 N6          12.5140     6.5430     9.0340 na         1 DMY       0.075000
     26 C17         13.3640     5.6990     9.6750 cd         1 DMY      -0.180000
     27 C18         12.7690     7.0400     7.6960 c3         1 DMY       0.057900
     28 C19         10.3490     7.7150     9.4490 c          1 DMY       0.640700
     29 O4          10.0510     7.9050     8.2760 o          1 DMY      -0.603100
     30 N7           9.6810     8.2830    10.4720 ns         1 DMY      -0.505900
     31 C20          8.4810     9.0640    10.2910 c3         1 DMY       0.110000
     32 C21          7.2250     8.1920    10.1910 c3         1 DMY      -0.149700
     33 C22          5.9800     9.0100     9.9640 c2         1 DMY       0.610200
     34 N8           5.3590     8.9060     8.8520 n2         1 DMY      -0.817100
     35 N9           5.6670     9.8570    10.9860 nv         1 DMY      -1.093200
     36 H1           9.2210    -3.2460    19.6310 h5         1 DMY       0.013200
     37 HN1          9.9850    -1.8670    18.0840 hn         1 DMY       0.320500
     38 H3          11.7250    -0.5690    16.6480 ha         1 DMY       0.130000
     39 H5          13.2150    -2.3350    20.3000 h4         1 DMY       0.176000
     40 H61         15.3760    -1.5100    20.3920 h1         1 DMY       0.061700
     41 H62         16.1550    -1.7120    18.8190 h1         1 DMY       0.061700
     42 H63         15.8130    -0.0910    19.4430 h1         1 DMY       0.061700
     43 HN3         12.9750     1.1860    16.0250 hn         1 DMY       0.326500
     44 H9          12.7730     2.6710    13.9370 ha         1 DMY       0.129000
     45 H11         16.7760     1.4090    14.9680 h4         1 DMY       0.177000
     46 H121        18.0640     2.6030    13.4750 h1         1 DMY       0.061367
     47 H122        17.3790     2.5270    11.8480 h1         1 DMY       0.061367
     48 H123        17.3950     4.0580    12.7360 h1         1 DMY       0.061367
     49 HN5         12.7960     4.5840    12.7850 hn         1 DMY       0.325500
     50 H15         10.9820     6.1570    11.8920 ha         1 DMY       0.126000
     51 H17         14.2650     5.3620     9.1970 h4         1 DMY       0.176000
     52 H181        13.7790     6.7540     7.4160 h1         1 DMY       0.061700
     53 H182        12.0730     6.6160     6.9760 h1         1 DMY       0.061700
     54 H183        12.6960     8.1240     7.6610 h1         1 DMY       0.061700
     55 HN7          9.9990     8.1290    11.4140 hn         1 DMY       0.317500
     56 H201         8.4080     9.7480    11.1360 h1         1 DMY       0.060200
     57 H202         8.5790     9.6770     9.3940 h1         1 DMY       0.060200
     58 H211         7.3300     7.4950     9.3610 hc         1 DMY       0.069200
     59 H212         7.1210     7.6050    11.1080 hc         1 DMY       0.069200
     60 HN8          4.5430     9.5150     8.8320 hn         1 DMY       0.368400
     61 HN91         4.7660    10.3080    10.9800 hn         1 DMY       0.461000
     62 HN92         6.0270     9.6620    11.9050 hn         1 DMY       0.461000
@<TRIPOS>BOND
     1     1     2 2   
     2     1     3 1   
     3     1    36 1   
     4     3     4 1   
     5     3    37 1   
     6     4     5 1   
     7     4     8 2   
     8     5     6 2   
     9     5    38 1   
    10     6     7 1   
    11     6    10 1   
    12     7     8 1   
    13     7     9 1   
    14     8    39 1   
    15     9    40 1   
    16     9    41 1   
    17     9    42 1   
    18    10    11 2   
    19    10    12 1   
    20    12    13 1   
    21    12    43 1   
    22    13    14 1   
    23    13    17 2   
    24    14    15 2   
    25    14    44 1   
    26    15    16 1   
    27    15    19 1   
    28    16    17 1   
    29    16    18 1   
    30    17    45 1   
    31    18    46 1   
    32    18    47 1   
    33    18    48 1   
    34    19    20 2   
    35    19    21 1   
    36    21    22 1   
    37    21    49 1   
    38    22    23 1   
    39    22    26 2   
    40    23    24 2   
    41    23    50 1   
    42    24    25 1   
    43    24    28 1   
    44    25    26 1   
    45    25    27 1   
    46    26    51 1   
    47    27    52 1   
    48    27    53 1   
    49    27    54 1   
    50    28    29 2   
    51    28    30 1   
    52    30    31 1   
    53    30    55 1   
    54    31    32 1   
    55    31    56 1   
    56    31    57 1   
    57    32    33 1   
    58    32    58 1   
    59    32    59 1   
    60    33    34 2   
    61    33    35 1   
    62    34    60 1   
    63    35    61 1   
    64    35    62 1   
@<TRIPOS>SUBSTRUCTURE
     1 DMY         1 TEMP              0 ****  ****    0 ROOT
