@<TRIPOS>MOLECULE
DMY
   62    64     1     0     0
SMALL
No Charge or Current Charge


@<TRIPOS>ATOM
      1 C1           9.7710    -0.5760    20.2780 c          1 DMY       0.601900
      2 O1          10.1900    -1.4370    21.0450 o          1 DMY      -0.594100
      3 N1          10.4940    -0.0480    19.2210 ns         1 DMY      -0.388100
      4 C2          11.7840    -0.3460    18.8030 cc         1 DMY      -0.030400
      5 C3          12.4200     0.2580    17.7080 cc         1 DMY      -0.183000
      6 C4          13.6870    -0.2640    17.5690 cd         1 DMY      -0.233600
      7 N2          13.8210    -1.2080    18.6040 na         1 DMY       0.075000
      8 C5          12.6430    -1.2520    19.3610 cd         1 DMY      -0.179000
      9 C6          15.0070    -2.0340    18.8710 c3         1 DMY       0.058900
     10 C7          14.6910     0.1080    16.5280 c          1 DMY       0.646700
     11 O2          15.8050    -0.3960    16.4580 o          1 DMY      -0.608100
     12 N3          14.2340     1.0770    15.6550 ns         1 DMY      -0.371100
     13 C8          14.8770     1.6660    14.5750 cc         1 DMY      -0.021400
     14 C9          14.3030     2.6500    13.7550 cc         1 DMY      -0.185000
     15 C10         15.2050     3.0170    12.7820 cd         1 DMY      -0.232600
     16 N4          16.3530     2.2380    13.0180 na         1 DMY       0.074000
     17 C11         16.1420     1.4070    14.1260 cd         1 DMY      -0.178000
     18 C12         17.5960     2.2720    12.2340 c3         1 DMY       0.058900
     19 C13         14.9900     4.0340    11.7090 c          1 DMY       0.645700
     20 O3          15.8350     4.3170    10.8700 o          1 DMY      -0.609100
     21 N5          13.7390     4.6210    11.7620 ns         1 DMY      -0.370100
     22 C14         13.1850     5.5950    10.9420 cc         1 DMY      -0.022400
     23 C15         11.8920     6.1150    11.0990 cc         1 DMY      -0.190000
     24 C16         11.6590     7.0590    10.1240 cd         1 DMY      -0.231600
     25 N6          12.8380     7.1120     9.3590 na         1 DMY       0.075000
     26 C17         13.7750     6.2050     9.8710 cd         1 DMY      -0.180000
     27 C18         13.0730     7.9790     8.1950 c3         1 DMY       0.057900
     28 C19         10.4070     7.8480     9.9380 c          1 DMY       0.640700
     29 O4          10.2450     8.6780     9.0560 o          1 DMY      -0.603100
     30 N7           9.4320     7.5580    10.8640 ns         1 DMY      -0.505900
     31 C20          8.0990     8.1670    10.8990 c3         1 DMY       0.110000
     32 C21          7.1510     7.5500     9.8540 c3         1 DMY      -0.149700
     33 C22          5.7730     8.1580     9.9080 c2         1 DMY       0.610200
     34 N8           5.4090     9.1390     9.2040 n2         1 DMY      -0.817100
     35 N9           4.9140     7.6020    10.7920 nv         1 DMY      -1.093200
     36 H1           8.7610    -0.1300    20.3530 h5         1 DMY       0.013200
     37 HN1          9.9840     0.6530    18.6970 hn         1 DMY       0.320500
     38 H3          11.9500     1.0180    17.0900 ha         1 DMY       0.130000
     39 H5          12.5250    -1.9120    20.2110 h4         1 DMY       0.176000
     40 H61         14.8260    -2.6770    19.7400 h1         1 DMY       0.061700
     41 H62         15.2220    -2.6600    17.9980 h1         1 DMY       0.061700
     42 H63         15.8670    -1.3850    19.0770 h1         1 DMY       0.061700
     43 HN3         13.2930     1.3810    15.8590 hn         1 DMY       0.326500
     44 H9          13.2980     3.0350    13.9000 ha         1 DMY       0.129000
     45 H11         16.8970     0.7200    14.4870 h4         1 DMY       0.177000
     46 H121        18.3180     1.5570    12.6480 h1         1 DMY       0.061367
     47 H122        17.3810     2.0040    11.1930 h1         1 DMY       0.061367
     48 H123        18.0260     3.2800    12.2720 h1         1 DMY       0.061367
     49 HN5         13.1680     4.2700    12.5180 hn         1 DMY       0.325500
     50 H15         11.2080     5.7980    11.8800 ha         1 DMY       0.126000
     51 H17         14.7580     6.0790     9.4340 h4         1 DMY       0.176000
     52 H181        14.0800     7.8060     7.7980 h1         1 DMY       0.061700
     53 H182        12.3350     7.7540     7.4160 h1         1 DMY       0.061700
     54 H183        12.9790     9.0290     8.4960 h1         1 DMY       0.061700
     55 HN7          9.6670     6.8610    11.5570 hn         1 DMY       0.317500
     56 H201         7.6790     8.0280    11.9040 h1         1 DMY       0.060200
     57 H202         8.1920     9.2480    10.7220 h1         1 DMY       0.060200
     58 H211         7.5760     7.6960     8.8550 hc         1 DMY       0.069200
     59 H212         7.0990     6.4660    10.0070 hc         1 DMY       0.069200
     60 HN8          4.4470     9.3810     9.4690 hn         1 DMY       0.368400
     61 HN91         3.9450     7.5970    10.4920 hn         1 DMY       0.461000
     62 HN92         5.2290     6.7230    11.1900 hn         1 DMY       0.461000
@<TRIPOS>BOND
     1     1     2 2   
     2     1     3 1   
     3     1    36 1   
     4     3     4 1   
     5     3    37 1   
     6     4     5 1   
     7     4     8 2   
     8     5     6 2   
     9     5    38 1   
    10     6     7 1   
    11     6    10 1   
    12     7     8 1   
    13     7     9 1   
    14     8    39 1   
    15     9    40 1   
    16     9    41 1   
    17     9    42 1   
    18    10    11 2   
    19    10    12 1   
    20    12    13 1   
    21    12    43 1   
    22    13    14 1   
    23    13    17 2   
    24    14    15 2   
    25    14    44 1   
    26    15    16 1   
    27    15    19 1   
    28    16    17 1   
    29    16    18 1   
    30    17    45 1   
    31    18    46 1   
    32    18    47 1   
    33    18    48 1   
    34    19    20 2   
    35    19    21 1   
    36    21    22 1   
    37    21    49 1   
    38    22    23 1   
    39    22    26 2   
    40    23    24 2   
    41    23    50 1   
    42    24    25 1   
    43    24    28 1   
    44    25    26 1   
    45    25    27 1   
    46    26    51 1   
    47    27    52 1   
    48    27    53 1   
    49    27    54 1   
    50    28    29 2   
    51    28    30 1   
    52    30    31 1   
    53    30    55 1   
    54    31    32 1   
    55    31    56 1   
    56    31    57 1   
    57    32    33 1   
    58    32    58 1   
    59    32    59 1   
    60    33    34 2   
    61    33    35 1   
    62    34    60 1   
    63    35    61 1   
    64    35    62 1   
@<TRIPOS>SUBSTRUCTURE
     1 DMY         1 TEMP              0 ****  ****    0 ROOT
