@<TRIPOS>MOLECULE
DN0
   61    64     1     0     0
SMALL
bcc


@<TRIPOS>ATOM
      1 C10         -3.5590    -0.8320     0.2060 ca         1 DN0       0.151100
      2 C13         -0.8920    -1.1930    -0.6160 cp         1 DN0      -0.076000
      3 C15         -2.5100    -0.2450     0.9180 ca         1 DN0      -0.194000
      4 C17          0.8640    -1.4640    -2.3880 ca         1 DN0      -0.087000
      5 C21          1.5360    -1.5230    -0.1170 ca         1 DN0       0.413200
      6 C22          4.5970    -1.9370    -2.0340 c3         1 DN0      -0.208700
      7 C26          7.4940     0.4360    -1.3980 c3         1 DN0       0.148300
      8 C28          8.8950     1.0850     0.5890 ca         1 DN0      -0.113000
      9 C01         -7.9690     2.6600    -0.3110 c6         1 DN0       0.129900
     10 C03         -8.7030     2.3720     1.8690 c6         1 DN0       0.129900
     11 C04         -8.4840     0.8750     1.7710 c6         1 DN0       0.125800
     12 C06         -7.7230     1.1700    -0.4590 c6         1 DN0       0.125800
     13 C07         -7.1620    -0.8400     0.7620 c3         1 DN0       0.168800
     14 C08         -5.8990    -1.2060     0.0150 c3         1 DN0       0.142400
     15 C11         -3.2680    -1.5970    -0.9210 ca         1 DN0      -0.194000
     16 C12         -1.9480    -1.7670    -1.3170 ca         1 DN0      -0.077500
     17 C14         -1.2030    -0.4250     0.5110 ca         1 DN0      -0.077500
     18 C16          0.5020    -1.3890    -1.0450 cp         1 DN0      -0.134300
     19 C18          2.1910    -1.6540    -2.7310 ca         1 DN0      -0.220300
     20 C19          3.1410    -1.7650    -1.7240 ca         1 DN0       0.422600
     21 C23          5.3310    -0.6090    -1.9480 c          1 DN0       0.675100
     22 C27          7.6370     0.9540     0.0120 ca         1 DN0      -0.114300
     23 C29          9.0380     1.5830     1.8790 ca         1 DN0      -0.131500
     24 C30          7.9180     1.9500     2.6100 ca         1 DN0      -0.124000
     25 C31          6.6550     1.8190     2.0430 ca         1 DN0      -0.131500
     26 C32          6.5160     1.3250     0.7540 ca         1 DN0      -0.113000
     27 N05         -7.4150     0.5830     0.8320 n3         1 DN0      -0.702600
     28 N20          2.8080    -1.7010    -0.4380 nb         1 DN0      -0.670000
     29 N25          6.5960    -0.6910    -1.5050 ns         1 DN0      -0.571900
     30 O02         -9.0010     2.9340     0.6100 os         1 DN0      -0.403600
     31 O09         -4.7980    -0.6080     0.6760 os         1 DN0      -0.302900
     32 O24          4.8010     0.4360    -2.2930 o          1 DN0      -0.599100
     33 H151        -2.7290     0.3590     1.7890 ha         1 DN0       0.141000
     34 H171         0.1170    -1.3580    -3.1640 ha         1 DN0       0.138000
     35 H211         1.3140    -1.5010     0.9460 h4         1 DN0       0.020100
     36 H222         5.0380    -2.6740    -1.3600 hc         1 DN0       0.070200
     37 H221         4.7290    -2.3140    -3.0510 hc         1 DN0       0.070200
     38 H261         7.1290     1.2270    -2.0540 h1         1 DN0       0.062200
     39 H262         8.4710     0.1360    -1.7810 h1         1 DN0       0.062200
     40 H012        -7.0360     3.1510     0.0020 h1         1 DN0       0.052450
     41 H011        -8.2650     3.0860    -1.2710 h1         1 DN0       0.052450
     42 H032        -9.5450     2.5850     2.5310 h1         1 DN0       0.052450
     43 H031        -7.8090     2.8460     2.2980 h1         1 DN0       0.052450
     44 H041        -8.2120     0.4920     2.7580 h1         1 DN0       0.039700
     45 H042        -9.4300     0.3850     1.4820 h1         1 DN0       0.039700
     46 H061        -8.6020     0.6910    -0.9250 h1         1 DN0       0.039700
     47 H062        -6.8850     1.0390    -1.1470 h1         1 DN0       0.039700
     48 H072        -7.9920    -1.3880     0.2830 h1         1 DN0       0.043200
     49 H071        -7.0870    -1.2240     1.7830 h1         1 DN0       0.043200
     50 H082        -5.8020    -2.2980     0.0120 h1         1 DN0       0.035200
     51 H081        -5.9420    -0.8840    -1.0300 h1         1 DN0       0.035200
     52 H111        -4.0470    -2.0750    -1.4980 ha         1 DN0       0.141000
     53 H121        -1.7490    -2.3820    -2.1870 ha         1 DN0       0.132500
     54 H141        -0.4140     0.0590     1.0720 ha         1 DN0       0.132500
     55 H181         2.4870    -1.7120    -3.7700 ha         1 DN0       0.142000
     56 H291        10.0260     1.6790     2.3120 ha         1 DN0       0.130500
     57 H301         8.0270     2.3370     3.6150 ha         1 DN0       0.129000
     58 H311         5.7760     2.1040     2.6060 ha         1 DN0       0.130500
     59 H321         5.5260     1.2360     0.3240 ha         1 DN0       0.136000
     60 H251         6.9420    -1.5860    -1.1980 hn         1 DN0       0.313500
     61 H281         9.7750     0.7960     0.0260 ha         1 DN0       0.136000
@<TRIPOS>BOND
     1     1     3 ar  
     2     1    15 ar  
     3     1    31 1   
     4     2    16 ar  
     5     2    17 ar  
     6     2    18 1   
     7     3    17 ar  
     8     3    33 1   
     9     4    18 ar  
    10     4    19 ar  
    11     4    34 1   
    12     5    18 ar  
    13     5    28 ar  
    14     5    35 1   
    15     6    20 1   
    16     6    21 1   
    17     6    36 1   
    18     6    37 1   
    19     7    22 1   
    20     7    29 1   
    21     7    38 1   
    22     7    39 1   
    23     8    22 ar  
    24     8    23 ar  
    25     8    61 1   
    26     9    12 1   
    27     9    30 1   
    28     9    40 1   
    29     9    41 1   
    30    10    11 1   
    31    10    30 1   
    32    10    42 1   
    33    10    43 1   
    34    11    27 1   
    35    11    44 1   
    36    11    45 1   
    37    12    27 1   
    38    12    46 1   
    39    12    47 1   
    40    13    14 1   
    41    13    27 1   
    42    13    48 1   
    43    13    49 1   
    44    14    31 1   
    45    14    50 1   
    46    14    51 1   
    47    15    16 ar  
    48    15    52 1   
    49    16    53 1   
    50    17    54 1   
    51    19    20 ar  
    52    19    55 1   
    53    20    28 ar  
    54    21    29 1   
    55    21    32 2   
    56    22    26 ar  
    57    23    24 ar  
    58    23    56 1   
    59    24    25 ar  
    60    24    57 1   
    61    25    26 ar  
    62    25    58 1   
    63    26    59 1   
    64    29    60 1   
@<TRIPOS>SUBSTRUCTURE
     1 DN0         1 TEMP              0 ****  ****    0 ROOT
