@<TRIPOS>MOLECULE
DN0
   61    64     1     0     0
SMALL
No Charge or Current Charge


@<TRIPOS>ATOM
      1 C10         -3.5660    -1.0220     0.1800 ca         1 DN0       0.151100
      2 C13         -0.8540    -1.3910    -0.6100 cp         1 DN0      -0.076000
      3 C15         -2.5230    -0.5020     0.9590 ca         1 DN0      -0.176000
      4 C17          0.9510    -1.6490    -2.3860 ca         1 DN0      -0.069000
      5 C21          1.6160    -1.7140    -0.0640 ca         1 DN0       0.347900
      6 C22          4.7200    -2.1460    -1.9920 c3         1 DN0      -0.208700
      7 C26          6.7560     1.0200    -1.2390 c3         1 DN0       0.148300
      8 C28          8.7710     0.9400     0.3080 ca         1 DN0      -0.095000
      9 C01         -7.8390     2.8720    -0.2090 c6         1 DN0       0.153100
     10 C03         -8.9060     2.3970     1.8970 c6         1 DN0       0.153100
     11 C04         -8.7040     0.8670     1.6830 c6         1 DN0       0.125800
     12 C06         -7.6090     1.3530    -0.4680 c6         1 DN0       0.125800
     13 C07         -7.3000    -0.8860     0.6220 c3         1 DN0       0.168800
     14 C08         -6.0020    -1.2970    -0.1260 c3         1 DN0       0.165600
     15 C11         -3.2600    -1.7320    -1.0000 ca         1 DN0      -0.176000
     16 C12         -1.9200    -1.9120    -1.3870 ca         1 DN0      -0.059500
     17 C14         -1.1840    -0.6830     0.5730 ca         1 DN0      -0.059500
     18 C16          0.5740    -1.5850    -1.0220 cp         1 DN0      -0.069000
     19 C18          2.3040    -1.8320    -2.7160 ca         1 DN0      -0.137000
     20 C19          3.2550    -1.9470    -1.6870 ca         1 DN0       0.357300
     21 C23          5.3490    -0.7890    -2.2520 c          1 DN0       0.608100
     22 C27          7.4290     1.3120     0.0920 ca         1 DN0      -0.114300
     23 C29          9.3910     1.2070     1.5410 ca         1 DN0      -0.113500
     24 C30          8.6730     1.8450     2.5660 ca         1 DN0      -0.106000
     25 C31          7.3340     2.2160     2.3570 ca         1 DN0      -0.113500
     26 C32          6.7130     1.9500     1.1240 ca         1 DN0      -0.095000
     27 N05         -7.5220     0.5780     0.8120 n3         1 DN0      -0.702600
     28 N20          2.9210    -1.8930    -0.3800 nb         1 DN0      -0.670000
     29 N25          6.0770    -0.2720    -1.2090 ns         1 DN0      -0.504900
     30 O02         -9.0080     3.0720     0.6210 os         1 DN0      -0.450000
     31 O09         -4.8600    -0.8130     0.6090 os         1 DN0      -0.326100
     32 O24          5.2160    -0.1960    -3.3120 o          1 DN0      -0.599100
     33 H151        -2.7550     0.0480     1.8680 ha         1 DN0       0.123000
     34 H171         0.2130    -1.5430    -3.1770 ha         1 DN0       0.120000
     35 H211         1.3920    -1.6870     1.0010 h4         1 DN0       0.020100
     36 H222         5.2120    -2.6360    -1.1440 hc         1 DN0       0.070200
     37 H221         4.8240    -2.7670    -2.8890 hc         1 DN0       0.070200
     38 H261         6.0230     1.8050    -1.4660 h1         1 DN0       0.062200
     39 H262         7.5040     1.0120    -2.0430 h1         1 DN0       0.062200
     40 H012        -6.9600     3.3040     0.2910 h1         1 DN0       0.052450
     41 H011        -7.9810     3.3970    -1.1650 h1         1 DN0       0.052450
     42 H032        -9.8240     2.5760     2.4740 h1         1 DN0       0.052450
     43 H031        -8.0600     2.8130     2.4620 h1         1 DN0       0.052450
     44 H041        -8.5800     0.3880     2.6660 h1         1 DN0       0.039700
     45 H042        -9.6180     0.4510     1.2350 h1         1 DN0       0.039700
     46 H061        -8.4340     0.9720    -1.0890 h1         1 DN0       0.039700
     47 H062        -6.6850     1.2420    -1.0530 h1         1 DN0       0.039700
     48 H072        -8.1500    -1.3160     0.0750 h1         1 DN0       0.043200
     49 H071        -7.2790    -1.3800     1.6030 h1         1 DN0       0.043200
     50 H082        -5.9710    -2.3910    -0.2010 h1         1 DN0       0.035200
     51 H081        -6.0140    -0.8860    -1.1430 h1         1 DN0       0.035200
     52 H111        -4.0420    -2.1520    -1.6260 ha         1 DN0       0.123000
     53 H121        -1.7090    -2.4750    -2.2920 ha         1 DN0       0.114500
     54 H141        -0.3990    -0.2560     1.1920 ha         1 DN0       0.114500
     55 H181         2.6140    -1.8780    -3.7560 ha         1 DN0       0.124000
     56 H291        10.4270     0.9180     1.7020 ha         1 DN0       0.112500
     57 H301         9.1530     2.0510     3.5200 ha         1 DN0       0.111000
     58 H311         6.7760     2.7090     3.1510 ha         1 DN0       0.112500
     59 H321         5.6750     2.2380     0.9720 ha         1 DN0       0.118000
     60 H251         6.1220    -0.8210    -0.3600 hn         1 DN0       0.313500
     61 H281         9.3330     0.4430    -0.4800 ha         1 DN0       0.118000
@<TRIPOS>BOND
     1     1     3 ar  
     2     1    15 ar  
     3     1    31 1   
     4     2    16 ar  
     5     2    17 ar  
     6     2    18 1   
     7     3    17 ar  
     8     3    33 1   
     9     4    18 ar  
    10     4    19 ar  
    11     4    34 1   
    12     5    18 ar  
    13     5    28 ar  
    14     5    35 1   
    15     6    20 1   
    16     6    21 1   
    17     6    36 1   
    18     6    37 1   
    19     7    22 1   
    20     7    29 1   
    21     7    38 1   
    22     7    39 1   
    23     8    22 ar  
    24     8    23 ar  
    25     8    61 1   
    26     9    12 1   
    27     9    30 1   
    28     9    40 1   
    29     9    41 1   
    30    10    11 1   
    31    10    30 1   
    32    10    42 1   
    33    10    43 1   
    34    11    27 1   
    35    11    44 1   
    36    11    45 1   
    37    12    27 1   
    38    12    46 1   
    39    12    47 1   
    40    13    14 1   
    41    13    27 1   
    42    13    48 1   
    43    13    49 1   
    44    14    31 1   
    45    14    50 1   
    46    14    51 1   
    47    15    16 ar  
    48    15    52 1   
    49    16    53 1   
    50    17    54 1   
    51    19    20 ar  
    52    19    55 1   
    53    20    28 ar  
    54    21    29 1   
    55    21    32 2   
    56    22    26 ar  
    57    23    24 ar  
    58    23    56 1   
    59    24    25 ar  
    60    24    57 1   
    61    25    26 ar  
    62    25    58 1   
    63    26    59 1   
    64    29    60 1   
@<TRIPOS>SUBSTRUCTURE
     1 DN0         1 TEMP              0 ****  ****    0 ROOT
