@<TRIPOS>MOLECULE
DN1
   68    70     1     0     0
SMALL
No Charge or Current Charge


@<TRIPOS>ATOM
      1 N1           0.0830     0.5570     3.1100 nu         1 DN1      -0.926200
      2 C2           0.3920    -0.9460     3.1180 c5         1 DN1       0.124200
      3 C1           1.0180    -1.5190     1.7750 c          1 DN1       0.613100
      4 O2           1.4710    -2.6410     1.5660 o          1 DN1      -0.667100
      5 N3           1.0130    -0.5190     0.8350 ns         1 DN1      -0.465900
      6 C4           1.5210    -0.6170    -0.5460 c3         1 DN1       0.040700
      7 C5           3.0690    -0.4620    -0.5420 c3         1 DN1      -0.090400
      8 C6           5.3050    -0.3600    -1.7670 c3         1 DN1      -0.083100
      9 C7           3.5560    -2.0420    -2.5280 c3         1 DN1      -0.083100
     10 C8           3.7920    -0.6440    -1.9080 c3         1 DN1      -0.061700
     11 C9           0.8080     0.4520    -1.4250 c          1 DN1       0.596100
     12 O10          0.3250     1.4800    -0.9640 o          1 DN1      -0.627100
     13 N11          0.7260     0.1490    -2.7670 ns         1 DN1      -0.487900
     14 C12          0.0970     0.9860    -3.7920 c3         1 DN1       0.114700
     15 C13         -1.3170     0.4550    -4.1610 c3         1 DN1      -0.149400
     16 C14         -2.3020     0.3560    -2.9730 c3         1 DN1       0.166300
     17 F15         -3.5630     0.2150    -3.4400 f          1 DN1      -0.135500
     18 F16         -2.0360    -0.7390    -2.2250 f          1 DN1      -0.135500
     19 C17          1.0590     1.1100    -5.0090 c3         1 DN1       0.003300
     20 C18          0.5130     2.1060    -6.0920 c          1 DN1       0.693000
     21 O19          0.3010     3.2670    -5.7730 o          1 DN1      -0.716500
     22 O20          0.3540     1.6740    -7.2280 o          1 DN1      -0.716500
     23 O21          1.3580    -0.2040    -5.5670 oh         1 DN1      -0.713000
     24 C22         -0.9240    -1.7160     3.4420 c3         1 DN1       0.009900
     25 C23          1.5130    -1.1080     4.2450 c5         1 DN1      -0.035100
     26 C24          0.8350     1.1670     4.0910 ca         1 DN1       0.297000
     27 C25          1.6560     0.2930     4.7560 ca         1 DN1      -0.161300
     28 C26          0.7740     2.5210     4.4400 ca         1 DN1      -0.134000
     29 C27          2.4850     0.7330     5.8000 ca         1 DN1      -0.078000
     30 C28          2.4530     2.0950     6.1600 ca         1 DN1      -0.177000
     31 C29          1.5970     2.9900     5.4830 ca         1 DN1      -0.093000
     32 C30         -1.9250    -1.8030     2.2990 cc         1 DN1      -0.135300
     33 C31         -1.8960    -2.9480     1.4540 cc         1 DN1      -0.138000
     34 C32         -2.8350    -2.9660     0.4620 cd         1 DN1      -0.301000
     35 S33         -3.8510    -1.5260     0.5260 ss         1 DN1       0.251000
     36 C34         -2.9390    -0.9250     1.9250 cd         1 DN1      -0.234600
     37 C35         -3.3050     0.3820     2.5440 c          1 DN1       0.739600
     38 O36         -2.6430     0.8220     3.4700 o          1 DN1      -0.717000
     39 O37         -4.2550     0.9910     2.0770 o          1 DN1      -0.717000
     40 H1          -0.9160     0.8280     3.1640 hn         1 DN1       0.549000
     41 H3           0.6260     0.3600     1.1710 hn         1 DN1       0.368500
     42 H4           1.2470    -1.6040    -0.9360 h1         1 DN1       0.074700
     43 H5C1         3.4920    -1.1850     0.1670 hc         1 DN1       0.050200
     44 H5C2         3.3130     0.5310    -0.1450 hc         1 DN1       0.050200
     45 H6C1         5.8060    -0.4370    -2.7400 hc         1 DN1       0.026700
     46 H6C2         5.4760     0.6510    -1.3790 hc         1 DN1       0.026700
     47 H6C3         5.7750    -1.0760    -1.0820 hc         1 DN1       0.026700
     48 H7C1         3.9010    -2.8320    -1.8510 hc         1 DN1       0.026700
     49 H7C2         2.4960    -2.2130    -2.7440 hc         1 DN1       0.026700
     50 H7C3         4.1030    -2.1410    -3.4740 hc         1 DN1       0.026700
     51 H8           3.4020     0.1040    -2.6090 hc         1 DN1       0.066700
     52 H11          1.1670    -0.7070    -3.0790 hn         1 DN1       0.320500
     53 H12         -0.0280     1.9980    -3.3800 h1         1 DN1       0.091700
     54 H13         -1.7560     1.1250    -4.9080 hc         1 DN1       0.076700
     55 H13D        -1.2330    -0.5290    -4.6370 hc         1 DN1       0.076700
     56 H14         -2.2510     1.2520    -2.3440 h2         1 DN1       0.067700
     57 H17          1.9920     1.5590    -4.6410 h1         1 DN1       0.041700
     58 H21          1.1130    -0.1290    -6.5220 ho         1 DN1       0.474000
     59 H221        -0.6590    -2.7380     3.7400 hc         1 DN1       0.053200
     60 H222        -1.4010    -1.2910     4.3320 hc         1 DN1       0.053200
     61 H231         1.2070    -1.8010     5.0360 hc         1 DN1       0.055200
     62 H232         2.4630    -1.4810     3.8450 hc         1 DN1       0.055200
     63 H26          0.1070     3.1950     3.9120 ha         1 DN1       0.130000
     64 H27          3.1330     0.0360     6.3260 ha         1 DN1       0.092000
     65 H28          3.0870     2.4570     6.9660 ha         1 DN1       0.088000
     66 H29          1.5700     4.0390     5.7680 ha         1 DN1       0.092000
     67 H31         -1.1740    -3.7480     1.5950 ha         1 DN1       0.118000
     68 H32         -3.0030    -3.7220    -0.2950 h4         1 DN1       0.126000
@<TRIPOS>BOND
     1     1     2 1   
     2     1    26 1   
     3     1    40 1   
     4     2     3 1   
     5     2    24 1   
     6     2    25 1   
     7     3     4 2   
     8     3     5 1   
     9     5     6 1   
    10     5    41 1   
    11     6     7 1   
    12     6    11 1   
    13     6    42 1   
    14     7    10 1   
    15     7    43 1   
    16     7    44 1   
    17     8    10 1   
    18     8    45 1   
    19     8    46 1   
    20     8    47 1   
    21     9    10 1   
    22     9    48 1   
    23     9    49 1   
    24     9    50 1   
    25    10    51 1   
    26    11    12 2   
    27    11    13 1   
    28    13    14 1   
    29    13    52 1   
    30    14    15 1   
    31    14    19 1   
    32    14    53 1   
    33    15    16 1   
    34    15    54 1   
    35    15    55 1   
    36    16    17 1   
    37    16    18 1   
    38    16    56 1   
    39    19    20 1   
    40    19    23 1   
    41    19    57 1   
    42    20    21 1   
    43    20    22 1   
    44    23    58 1   
    45    24    32 1   
    46    24    59 1   
    47    24    60 1   
    48    25    27 1   
    49    25    61 1   
    50    25    62 1   
    51    26    27 ar  
    52    26    28 ar  
    53    27    29 ar  
    54    28    31 ar  
    55    28    63 1   
    56    29    30 ar  
    57    29    64 1   
    58    30    31 ar  
    59    30    65 1   
    60    31    66 1   
    61    32    33 1   
    62    32    36 2   
    63    33    34 2   
    64    33    67 1   
    65    34    35 1   
    66    34    68 1   
    67    35    36 1   
    68    36    37 1   
    69    37    38 1   
    70    37    39 1   
@<TRIPOS>SUBSTRUCTURE
     1 DN1         1 TEMP              0 ****  ****    0 ROOT
