@<TRIPOS>MOLECULE
DN1
   68    70     1     0     0
SMALL
bcc


@<TRIPOS>ATOM
      1 N1          -0.0830     0.3800     3.1200 nu         1 DN1      -0.732600
      2 C2           0.2970    -1.0330     3.0670 c5         1 DN1       0.124200
      3 C1           0.9570    -1.3720     1.7220 c          1 DN1       0.680100
      4 O2           1.4450    -2.4810     1.5280 o          1 DN1      -0.667100
      5 N3           0.9410    -0.3940     0.8190 ns         1 DN1      -0.532900
      6 C4           1.5340    -0.5140    -0.4890 c3         1 DN1       0.040700
      7 C5           3.0430    -0.2200    -0.4350 c3         1 DN1      -0.090400
      8 C6           5.2770    -0.0210    -1.5120 c3         1 DN1      -0.083100
      9 C7           3.7500    -1.8740    -2.2230 c3         1 DN1      -0.083100
     10 C8           3.8240    -0.4310    -1.7320 c3         1 DN1      -0.061700
     11 C9           0.8480     0.4820    -1.4130 c          1 DN1       0.663100
     12 O10          0.5630     1.6060    -1.0220 o          1 DN1      -0.627100
     13 N11          0.6520     0.0550    -2.6650 ns         1 DN1      -0.554900
     14 C12          0.1490     0.8820    -3.7440 c3         1 DN1       0.114700
     15 C13         -1.3240     0.6000    -4.0440 c3         1 DN1      -0.149400
     16 C14         -2.2430     0.9020    -2.8900 c3         1 DN1       0.408900
     17 F15         -3.5450     0.8500    -3.3120 f          1 DN1      -0.256800
     18 F16         -2.1350    -0.0300    -1.9030 f          1 DN1      -0.256800
     19 C17          1.0380     0.6710    -4.9750 c3         1 DN1      -0.019900
     20 C18          0.5960     1.5810    -6.1430 c          1 DN1       0.903600
     21 O19          0.5980     2.8040    -5.9450 o          1 DN1      -0.821800
     22 O20          0.2700     0.9680    -7.1830 o          1 DN1      -0.821800
     23 O21          1.0170    -0.6720    -5.3810 oh         1 DN1      -0.650800
     24 C22         -0.9240    -1.9480     3.2570 c3         1 DN1       0.009900
     25 C23          1.3430    -1.2340     4.1990 c5         1 DN1      -0.035100
     26 C24          0.7890     1.0430     3.9780 ca         1 DN1       0.158600
     27 C25          1.6950     0.1720     4.5830 ca         1 DN1      -0.161300
     28 C26          0.8320     2.4060     4.2380 ca         1 DN1      -0.152000
     29 C27          2.6700     0.6540     5.4340 ca         1 DN1      -0.096000
     30 C28          2.7300     2.0240     5.6950 ca         1 DN1      -0.195000
     31 C29          1.8090     2.8830     5.1080 ca         1 DN1      -0.111000
     32 C30         -1.9310    -1.8900     2.1430 cc         1 DN1      -0.135300
     33 C31         -1.8550    -2.7750     1.0270 cc         1 DN1      -0.156000
     34 C32         -2.8620    -2.5990     0.1280 cd         1 DN1      -0.174100
     35 S33         -3.9360    -1.3720     0.6280 ss         1 DN1      -0.038800
     36 C34         -3.0220    -1.0590     2.0540 cd         1 DN1      -0.089700
     37 C35         -3.5560     0.0190     2.9520 c          1 DN1       0.950200
     38 O36         -2.8050     0.4450     3.8610 o          1 DN1      -0.822300
     39 O37         -4.7080     0.4080     2.6980 o          1 DN1      -0.822300
     40 H1          -1.0810     0.5240     3.3170 hn         1 DN1       0.493800
     41 H3           0.5390     0.4870     1.1120 hn         1 DN1       0.368500
     42 H4           1.3730    -1.5360    -0.8400 h1         1 DN1       0.074700
     43 H5C1         3.4720    -0.8620     0.3400 hc         1 DN1       0.050200
     44 H5C2         3.1760     0.8110    -0.0910 hc         1 DN1       0.050200
     45 H6C1         5.8620    -0.1270    -2.4270 hc         1 DN1       0.026700
     46 H6C2         5.3530     1.0180    -1.1870 hc         1 DN1       0.026700
     47 H6C3         5.7450    -0.6440    -0.7460 hc         1 DN1       0.026700
     48 H7C1         4.1040    -2.5640    -1.4530 hc         1 DN1       0.026700
     49 H7C2         2.7380    -2.1790    -2.4950 hc         1 DN1       0.026700
     50 H7C3         4.3740    -2.0150    -3.1070 hc         1 DN1       0.026700
     51 H8           3.4100     0.2190    -2.5110 hc         1 DN1       0.066700
     52 H11          0.8490    -0.9090    -2.8860 hn         1 DN1       0.320500
     53 H12          0.2600     1.9230    -3.4360 h1         1 DN1       0.091700
     54 H13         -1.6400     1.2420    -4.8690 hc         1 DN1       0.076700
     55 H13D        -1.4650    -0.4350    -4.3640 hc         1 DN1       0.076700
     56 H14         -2.0730     1.8860    -2.4490 h2         1 DN1       0.067700
     57 H17          2.0590     0.9560    -4.6840 h1         1 DN1       0.041700
     58 H21          0.6450    -0.6120    -6.2810 ho         1 DN1       0.435000
     59 H221        -0.5600    -2.9730     3.3490 hc         1 DN1       0.053200
     60 H222        -1.3820    -1.6870     4.2110 hc         1 DN1       0.053200
     61 H231         0.8970    -1.7640     5.0490 hc         1 DN1       0.055200
     62 H232         2.1950    -1.8320     3.8750 hc         1 DN1       0.055200
     63 H26          0.1280     3.0840     3.7720 ha         1 DN1       0.148000
     64 H27          3.3730    -0.0210     5.9070 ha         1 DN1       0.110000
     65 H28          3.4890     2.4160     6.3590 ha         1 DN1       0.106000
     66 H29          1.8550     3.9440     5.3210 ha         1 DN1       0.110000
     67 H31         -1.0750    -3.5140     0.9100 ha         1 DN1       0.136000
     68 H32         -3.0200    -3.1360    -0.7940 h4         1 DN1       0.144000
@<TRIPOS>BOND
     1     1     2 1   
     2     1    26 1   
     3     1    40 1   
     4     2     3 1   
     5     2    24 1   
     6     2    25 1   
     7     3     4 2   
     8     3     5 1   
     9     5     6 1   
    10     5    41 1   
    11     6     7 1   
    12     6    11 1   
    13     6    42 1   
    14     7    10 1   
    15     7    43 1   
    16     7    44 1   
    17     8    10 1   
    18     8    45 1   
    19     8    46 1   
    20     8    47 1   
    21     9    10 1   
    22     9    48 1   
    23     9    49 1   
    24     9    50 1   
    25    10    51 1   
    26    11    12 2   
    27    11    13 1   
    28    13    14 1   
    29    13    52 1   
    30    14    15 1   
    31    14    19 1   
    32    14    53 1   
    33    15    16 1   
    34    15    54 1   
    35    15    55 1   
    36    16    17 1   
    37    16    18 1   
    38    16    56 1   
    39    19    20 1   
    40    19    23 1   
    41    19    57 1   
    42    20    21 1   
    43    20    22 1   
    44    23    58 1   
    45    24    32 1   
    46    24    59 1   
    47    24    60 1   
    48    25    27 1   
    49    25    61 1   
    50    25    62 1   
    51    26    27 ar  
    52    26    28 ar  
    53    27    29 ar  
    54    28    31 ar  
    55    28    63 1   
    56    29    30 ar  
    57    29    64 1   
    58    30    31 ar  
    59    30    65 1   
    60    31    66 1   
    61    32    33 1   
    62    32    36 2   
    63    33    34 2   
    64    33    67 1   
    65    34    35 1   
    66    34    68 1   
    67    35    36 1   
    68    36    37 1   
    69    37    38 1   
    70    37    39 1   
@<TRIPOS>SUBSTRUCTURE
     1 DN1         1 TEMP              0 ****  ****    0 ROOT
