@<TRIPOS>MOLECULE
DN2
   68    70     1     0     0
SMALL
abcg2


@<TRIPOS>ATOM
      1 N1          -0.1020     0.1240    -2.7890 nu         1 DN2      -0.936200
      2 C2          -0.0770    -1.3300    -2.6360 c5         1 DN2       0.127200
      3 C1           0.0810    -1.7260    -1.1590 c          1 DN2       0.614100
      4 O2           0.0280    -2.9040    -0.8230 o          1 DN2      -0.668100
      5 N3           0.2750    -0.7030    -0.3250 ns         1 DN2      -0.460900
      6 C4           0.3620    -0.8110     1.1040 c3         1 DN2       0.032700
      7 C5           1.6240    -0.1290     1.6470 c3         1 DN2      -0.090400
      8 C6           4.1070     0.1130     1.6350 c3         1 DN2      -0.083600
      9 C7           3.0970    -2.1800     1.5190 c3         1 DN2      -0.083600
     10 C8           2.9340    -0.7170     1.1250 c3         1 DN2      -0.058700
     11 C9          -0.8540    -0.1510     1.7510 c          1 DN2       0.589100
     12 O10         -1.3780     0.8350     1.2630 o          1 DN2      -0.593100
     13 N11         -1.2380    -0.7270     2.9030 ns         1 DN2      -0.499900
     14 C12         -2.1740    -0.1540     3.8490 c3         1 DN2       0.111700
     15 C13         -3.4180    -1.0290     3.9920 c3         1 DN2      -0.144400
     16 C14         -4.1730    -1.1880     2.7010 c3         1 DN2       0.166300
     17 F15         -5.2800    -1.9670     2.8940 f          1 DN2      -0.142000
     18 F16         -4.6350     0.0200     2.2580 f          1 DN2      -0.142000
     19 C17         -1.4720     0.0410     5.1960 c3         1 DN2      -0.004700
     20 C18         -0.2690     1.0010     5.0350 c          1 DN2       0.693000
     21 O19         -0.4990     2.1440     4.6190 o          1 DN2      -0.709500
     22 O20          0.8350     0.5030     5.3540 o          1 DN2      -0.709500
     23 O21         -1.0210    -1.1860     5.7060 oh         1 DN2      -0.720000
     24 C22          1.0670    -1.9650    -3.4470 c3         1 DN2       0.007900
     25 C23         -1.4610    -1.8310    -3.1410 c5         1 DN2      -0.031100
     26 C24         -1.3830     0.5220    -3.1490 ca         1 DN2       0.303000
     27 C25         -2.2450    -0.5630    -3.3020 ca         1 DN2      -0.161300
     28 C26         -1.8350     1.8220    -3.3350 ca         1 DN2      -0.132000
     29 C27         -3.5750    -0.3630    -3.6180 ca         1 DN2      -0.074000
     30 C28         -4.0440     0.9390    -3.7980 ca         1 DN2      -0.174000
     31 C29         -3.1740     2.0150    -3.6670 ca         1 DN2      -0.089000
     32 C30          2.4580    -1.7120    -2.9350 cc         1 DN2      -0.128300
     33 C31          3.1110    -2.6620    -2.0950 cc         1 DN2      -0.126000
     34 C32          4.3810    -2.3090    -1.7620 cd         1 DN2      -0.312000
     35 S33          4.8150    -0.8130    -2.4590 ss         1 DN2       0.216000
     36 C34          3.2730    -0.6410    -3.2130 cd         1 DN2      -0.224600
     37 C35          3.1070     0.5820    -4.0690 c          1 DN2       0.738600
     38 O36          4.1370     1.2530    -4.2460 o          1 DN2      -0.712500
     39 O37          1.9670     0.8280    -4.5280 o          1 DN2      -0.712500
     40 H1           0.6610     0.4920    -3.3730 hn         1 DN2       0.547000
     41 H3           0.2360     0.2140    -0.7530 hn         1 DN2       0.360500
     42 H4           0.3830    -1.8720     1.3580 h1         1 DN2       0.073700
     43 H5C1         1.6070    -0.1860     2.7410 hc         1 DN2       0.071700
     44 H5C2         1.5770     0.9360     1.3980 hc         1 DN2       0.071700
     45 H6C1         5.0500    -0.2460     1.2180 hc         1 DN2       0.026033
     46 H6C2         4.0030     1.1640     1.3610 hc         1 DN2       0.026033
     47 H6C3         4.1850     0.0600     2.7250 hc         1 DN2       0.026033
     48 H7C1         3.0030    -2.3060     2.6020 hc         1 DN2       0.026033
     49 H7C2         2.3570    -2.8210     1.0380 hc         1 DN2       0.026033
     50 H7C3         4.0790    -2.5560     1.2270 hc         1 DN2       0.026033
     51 H8           2.9290    -0.6560     0.0320 hc         1 DN2       0.068700
     52 H11         -0.7340    -1.5430     3.2170 hn         1 DN2       0.312500
     53 H12         -2.4580     0.8300     3.4810 h1         1 DN2       0.105700
     54 H131        -3.1360    -2.0250     4.3430 hc         1 DN2       0.060700
     55 H132        -4.0830    -0.5930     4.7420 hc         1 DN2       0.060700
     56 H14         -3.5850    -1.6360     1.9000 h2         1 DN2       0.069700
     57 H17         -2.1950     0.5020     5.8850 h1         1 DN2       0.034700
     58 H21         -0.0560    -1.0360     5.7590 ho         1 DN2       0.477000
     59 H221         0.9030    -3.0440    -3.4600 hc         1 DN2       0.051700
     60 H222         0.9650    -1.6240    -4.4780 hc         1 DN2       0.051700
     61 H231        -1.3620    -2.3470    -4.1020 hc         1 DN2       0.053700
     62 H232        -1.9190    -2.5440    -2.4550 hc         1 DN2       0.053700
     63 H26         -1.1670     2.6660    -3.2200 ha         1 DN2       0.127000
     64 H27         -4.2450    -1.2060    -3.7360 ha         1 DN2       0.091000
     65 H28         -5.0840     1.1110    -4.0440 ha         1 DN2       0.089000
     66 H29         -3.5420     3.0220    -3.8140 ha         1 DN2       0.091000
     67 H31          2.6370    -3.5730    -1.7550 ha         1 DN2       0.121000
     68 H32          5.0710    -2.8520    -1.1350 h4         1 DN2       0.123000
@<TRIPOS>BOND
     1     1     2 1   
     2     1    26 1   
     3     1    40 1   
     4     2     3 1   
     5     2    24 1   
     6     2    25 1   
     7     3     4 2   
     8     3     5 1   
     9     5     6 1   
    10     5    41 1   
    11     6     7 1   
    12     6    11 1   
    13     6    42 1   
    14     7    10 1   
    15     7    43 1   
    16     7    44 1   
    17     8    10 1   
    18     8    45 1   
    19     8    46 1   
    20     8    47 1   
    21     9    10 1   
    22     9    48 1   
    23     9    49 1   
    24     9    50 1   
    25    10    51 1   
    26    11    12 2   
    27    11    13 1   
    28    13    14 1   
    29    13    52 1   
    30    14    15 1   
    31    14    19 1   
    32    14    53 1   
    33    15    16 1   
    34    15    54 1   
    35    15    55 1   
    36    16    17 1   
    37    16    18 1   
    38    16    56 1   
    39    19    20 1   
    40    19    23 1   
    41    19    57 1   
    42    20    21 1   
    43    20    22 1   
    44    23    58 1   
    45    24    32 1   
    46    24    59 1   
    47    24    60 1   
    48    25    27 1   
    49    25    61 1   
    50    25    62 1   
    51    26    27 ar  
    52    26    28 ar  
    53    27    29 ar  
    54    28    31 ar  
    55    28    63 1   
    56    29    30 ar  
    57    29    64 1   
    58    30    31 ar  
    59    30    65 1   
    60    31    66 1   
    61    32    33 1   
    62    32    36 2   
    63    33    34 2   
    64    33    67 1   
    65    34    35 1   
    66    34    68 1   
    67    35    36 1   
    68    36    37 1   
    69    37    38 1   
    70    37    39 1   
@<TRIPOS>SUBSTRUCTURE
     1 DN2         1 TEMP              0 ****  ****    0 ROOT
