@<TRIPOS>MOLECULE
DN2
   68    70     1     0     0
SMALL
No Charge or Current Charge


@<TRIPOS>ATOM
      1 N1          -0.2190     0.2900    -2.6850 nu         1 DN2      -0.936200
      2 C2          -0.1230    -1.2400    -2.6380 c5         1 DN2       0.127200
      3 C1           0.0740    -1.8680    -1.1910 c          1 DN2       0.614100
      4 O2           0.1440    -3.0530    -0.8810 o          1 DN2      -0.668100
      5 N3           0.1090    -0.8410    -0.2790 ns         1 DN2      -0.460900
      6 C4           0.2560    -0.9710     1.1850 c3         1 DN2       0.032700
      7 C5           1.6120    -0.3770     1.6590 c3         1 DN2      -0.090400
      8 C6           4.1540    -0.2470     1.4390 c3         1 DN2      -0.083600
      9 C7           3.0270    -2.5270     1.4590 c3         1 DN2      -0.083600
     10 C8           2.8830    -1.0400     1.0590 c3         1 DN2      -0.058700
     11 C9          -0.9370    -0.2840     1.9080 c          1 DN2       0.589100
     12 O10         -1.6910     0.5110     1.3590 o          1 DN2      -0.593100
     13 N11         -1.0970    -0.6470     3.2290 ns         1 DN2      -0.499900
     14 C12         -2.1280    -0.1300     4.1370 c3         1 DN2       0.111700
     15 C13         -3.2260    -1.1950     4.3810 c3         1 DN2      -0.144400
     16 C14         -3.9790    -1.6300     3.1060 c3         1 DN2       0.166300
     17 F15         -4.8640    -2.6060     3.4100 f          1 DN2      -0.142000
     18 F16         -4.6880    -0.5910     2.6070 f          1 DN2      -0.142000
     19 C17         -1.4910     0.3870     5.4580 c3         1 DN2      -0.004700
     20 C18         -0.6490     1.6860     5.2000 c          1 DN2       0.693000
     21 O19         -1.2410     2.7260     4.9480 o          1 DN2      -0.709500
     22 O20          0.5610     1.6200     5.3800 o          1 DN2      -0.709500
     23 O21         -0.6910    -0.6550     6.0920 oh         1 DN2      -0.720000
     24 C22          1.0390    -1.6890    -3.5800 c3         1 DN2       0.007900
     25 C23         -1.5580    -1.7320    -3.1370 c5         1 DN2      -0.031100
     26 C24         -1.4050     0.6340    -3.2980 ca         1 DN2       0.303000
     27 C25         -2.1960    -0.4510    -3.5770 ca         1 DN2      -0.161300
     28 C26         -1.7880     1.9300    -3.6640 ca         1 DN2      -0.132000
     29 C27         -3.4350    -0.2960    -4.2200 ca         1 DN2      -0.074000
     30 C28         -3.8510     1.0000    -4.5820 ca         1 DN2      -0.174000
     31 C29         -3.0280     2.1140    -4.3090 ca         1 DN2      -0.089000
     32 C30          2.4500    -1.5420    -3.0280 cc         1 DN2      -0.128300
     33 C31          3.0670    -2.6790    -2.4310 cc         1 DN2      -0.126000
     34 C32          4.3490    -2.4910    -2.0000 cd         1 DN2      -0.312000
     35 S33          4.8830    -0.8390    -2.3100 ss         1 DN2       0.216000
     36 C34          3.3150    -0.4510    -3.0470 cd         1 DN2      -0.224600
     37 C35          3.0710     0.9120    -3.6040 c          1 DN2       0.738600
     38 O36          3.9800     1.7270    -3.5440 o          1 DN2      -0.712500
     39 O37          1.9830     1.1890    -4.0800 o          1 DN2      -0.712500
     40 H1           0.5860     0.7940    -3.1020 hn         1 DN2       0.547000
     41 H3          -0.0360     0.0760    -0.6980 hn         1 DN2       0.360500
     42 H4           0.2130    -2.0320     1.4580 h1         1 DN2       0.073700
     43 H5C1         1.6700    -0.4370     2.7530 hc         1 DN2       0.071700
     44 H5C2         1.6210     0.6930     1.4140 hc         1 DN2       0.071700
     45 H6C1         5.0430    -0.6940     0.9790 hc         1 DN2       0.026033
     46 H6C2         4.0820     0.7910     1.0920 hc         1 DN2       0.026033
     47 H6C3         4.2990    -0.2370     2.5260 hc         1 DN2       0.026033
     48 H7C1         3.0670    -2.6360     2.5500 hc         1 DN2       0.026033
     49 H7C2         2.1890    -3.1230     1.0830 hc         1 DN2       0.026033
     50 H7C3         3.9470    -2.9520     1.0390 hc         1 DN2       0.026033
     51 H8           2.8000    -0.9980    -0.0330 hc         1 DN2       0.068700
     52 H11         -0.4270    -1.3040     3.6110 hn         1 DN2       0.312500
     53 H12         -2.6150     0.7350     3.6620 h1         1 DN2       0.105700
     54 H131        -2.7720    -2.0810     4.8420 hc         1 DN2       0.060700
     55 H132        -3.9530    -0.8040     5.1030 hc         1 DN2       0.060700
     56 H14         -3.2850    -1.9990     2.3430 h2         1 DN2       0.069700
     57 H17         -2.3050     0.6820     6.1340 h1         1 DN2       0.034700
     58 H21          0.2190    -0.2690     6.1460 ho         1 DN2       0.477000
     59 H221         0.8860    -2.7470    -3.8260 hc         1 DN2       0.051700
     60 H222         0.9590    -1.1760    -4.5450 hc         1 DN2       0.051700
     61 H231        -1.4910    -2.4630    -3.9510 hc         1 DN2       0.053700
     62 H232        -2.1410    -2.2010    -2.3360 hc         1 DN2       0.053700
     63 H26         -1.1420     2.7750    -3.4490 ha         1 DN2       0.127000
     64 H27         -4.0590    -1.1600    -4.4380 ha         1 DN2       0.091000
     65 H28         -4.8060     1.1420    -5.0810 ha         1 DN2       0.089000
     66 H29         -3.3480     3.1130    -4.5960 ha         1 DN2       0.091000
     67 H31          2.5480    -3.6290    -2.3350 ha         1 DN2       0.121000
     68 H32          5.0100    -3.2010    -1.5200 h4         1 DN2       0.123000
@<TRIPOS>BOND
     1     1     2 1   
     2     1    26 1   
     3     1    40 1   
     4     2     3 1   
     5     2    24 1   
     6     2    25 1   
     7     3     4 2   
     8     3     5 1   
     9     5     6 1   
    10     5    41 1   
    11     6     7 1   
    12     6    11 1   
    13     6    42 1   
    14     7    10 1   
    15     7    43 1   
    16     7    44 1   
    17     8    10 1   
    18     8    45 1   
    19     8    46 1   
    20     8    47 1   
    21     9    10 1   
    22     9    48 1   
    23     9    49 1   
    24     9    50 1   
    25    10    51 1   
    26    11    12 2   
    27    11    13 1   
    28    13    14 1   
    29    13    52 1   
    30    14    15 1   
    31    14    19 1   
    32    14    53 1   
    33    15    16 1   
    34    15    54 1   
    35    15    55 1   
    36    16    17 1   
    37    16    18 1   
    38    16    56 1   
    39    19    20 1   
    40    19    23 1   
    41    19    57 1   
    42    20    21 1   
    43    20    22 1   
    44    23    58 1   
    45    24    32 1   
    46    24    59 1   
    47    24    60 1   
    48    25    27 1   
    49    25    61 1   
    50    25    62 1   
    51    26    27 ar  
    52    26    28 ar  
    53    27    29 ar  
    54    28    31 ar  
    55    28    63 1   
    56    29    30 ar  
    57    29    64 1   
    58    30    31 ar  
    59    30    65 1   
    60    31    66 1   
    61    32    33 1   
    62    32    36 2   
    63    33    34 2   
    64    33    67 1   
    65    34    35 1   
    66    34    68 1   
    67    35    36 1   
    68    36    37 1   
    69    37    38 1   
    70    37    39 1   
@<TRIPOS>SUBSTRUCTURE
     1 DN2         1 TEMP              0 ****  ****    0 ROOT
