@<TRIPOS>MOLECULE
DN3
   42    44     1     0     0
SMALL
No Charge or Current Charge


@<TRIPOS>ATOM
      1 O14          0.0830    -0.7740    -0.6700 o          1 DN3      -0.564100
      2 C13          0.4470     0.3420    -0.3160 c          1 DN3       0.620700
      3 C15          1.9220     0.6970    -0.2380 ca         1 DN3      -0.160600
      4 C16          2.3720     1.9800     0.1660 ca         1 DN3      -0.086000
      5 C17          3.7460     2.2670     0.2270 ca         1 DN3      -0.124000
      6 C18          4.6910     1.2860    -0.1110 ca         1 DN3      -0.060000
      7 C19          4.2670     0.0080    -0.5150 ca         1 DN3      -0.089300
      8 C21          5.2980    -1.0550    -0.8830 c3         1 DN3       0.209100
      9 N22          6.0850    -1.5430     0.2770 n3         1 DN3      -0.716600
     10 C23          5.2500    -2.1710     1.3280 c3         1 DN3       0.148600
     11 C24          7.2130    -2.4080    -0.1330 c3         1 DN3       0.148600
     12 C20          2.8890    -0.2800    -0.5760 ca         1 DN3      -0.052000
     13 N12         -0.4380     1.3580     0.0310 ns         1 DN3      -0.147000
     14 C10         -1.8580     1.4180     0.0980 ca         1 DN3      -0.016000
     15 C11         -2.7060     0.3080    -0.1260 ca         1 DN3      -0.082000
     16 C6          -4.1120     0.4360    -0.0420 ca         1 DN3      -0.116500
     17 C7          -4.6630     1.6990     0.2740 ca         1 DN3      -0.127000
     18 C8          -3.8270     2.8020     0.5000 ca         1 DN3      -0.082000
     19 C9          -2.4340     2.6610     0.4140 ca         1 DN3      -0.151000
     20 C2          -4.9790    -0.7310    -0.2790 cc         1 DN3       0.455000
     21 N1          -6.3430    -0.7470    -0.2300 na         1 DN3      -0.212700
     22 N5          -6.8150    -1.9910    -0.5000 nc         1 DN3      -0.206800
     23 N4          -5.7430    -2.7070    -0.7060 nd         1 DN3      -0.040000
     24 N3          -4.5970    -1.9570    -0.5760 nd         1 DN3      -0.377000
     25 H1           1.6730     2.7670     0.4380 ha         1 DN3       0.111000
     26 H2           4.0800     3.2540     0.5400 ha         1 DN3       0.118000
     27 H3           5.7530     1.5160    -0.0570 ha         1 DN3       0.128000
     28 H4           4.7900    -1.8980    -1.3720 h1         1 DN3       0.040700
     29 H5           5.9740    -0.6190    -1.6310 h1         1 DN3       0.040700
     30 H7           5.8680    -2.4810     2.1810 h1         1 DN3       0.033200
     31 H8           4.4940    -1.4690     1.7040 h1         1 DN3       0.033200
     32 H9           4.7320    -3.0580     0.9390 h1         1 DN3       0.033200
     33 H10          7.8630    -1.8870    -0.8480 h1         1 DN3       0.033200
     34 H11          7.8240    -2.6880     0.7350 h1         1 DN3       0.033200
     35 H12          6.8480    -3.3300    -0.6080 h1         1 DN3       0.033200
     36 H13          2.5720    -1.2730    -0.8870 ha         1 DN3       0.135000
     37 H14          0.0140     2.2240     0.2880 hn         1 DN3       0.155000
     38 H15         -2.2880    -0.6650    -0.3630 ha         1 DN3       0.174000
     39 H16         -5.7390     1.8360     0.3470 ha         1 DN3       0.108000
     40 H17         -4.2600     3.7700     0.7440 ha         1 DN3       0.119000
     41 H18         -1.7990     3.5270     0.5920 ha         1 DN3       0.115000
     42 H19         -6.9530     0.0330    -0.0270 hn         1 DN3       0.385000
@<TRIPOS>BOND
     1     1     2 2   
     2     2     3 1   
     3     2    13 1   
     4     3     4 ar  
     5     3    12 ar  
     6     4     5 ar  
     7     4    25 1   
     8     5     6 ar  
     9     5    26 1   
    10     6     7 ar  
    11     6    27 1   
    12     7     8 1   
    13     7    12 ar  
    14     8     9 1   
    15     8    28 1   
    16     8    29 1   
    17     9    10 1   
    18     9    11 1   
    19    10    30 1   
    20    10    31 1   
    21    10    32 1   
    22    11    33 1   
    23    11    34 1   
    24    11    35 1   
    25    12    36 1   
    26    13    14 1   
    27    13    37 1   
    28    14    15 ar  
    29    14    19 ar  
    30    15    16 ar  
    31    15    38 1   
    32    16    17 ar  
    33    16    20 1   
    34    17    18 ar  
    35    17    39 1   
    36    18    19 ar  
    37    18    40 1   
    38    19    41 1   
    39    20    21 1   
    40    20    24 2   
    41    21    22 1   
    42    21    42 1   
    43    22    23 2   
    44    23    24 1   
@<TRIPOS>SUBSTRUCTURE
     1 DN3         1 TEMP              0 ****  ****    0 ROOT
