@<TRIPOS>MOLECULE
DN3
   42    44     1     0     0
SMALL
bcc


@<TRIPOS>ATOM
      1 O14          0.0360    -0.7410    -0.2620 o          1 DN3      -0.564100
      2 C13          0.4170     0.3990    -0.0660 c          1 DN3       0.687700
      3 C15          1.8640     0.7150     0.1160 ca         1 DN3      -0.160600
      4 C16          2.3110     1.7990     0.8640 ca         1 DN3      -0.104000
      5 C17          3.6740     2.0040     1.0380 ca         1 DN3      -0.142000
      6 C18          4.5890     1.1360     0.4670 ca         1 DN3      -0.078000
      7 C19          4.1570     0.0480    -0.2900 ca         1 DN3      -0.089300
      8 C21          5.1630    -0.8880    -0.9040 c3         1 DN3       0.209100
      9 N22          5.9690    -1.5510     0.1050 n3         1 DN3      -0.716600
     10 C23          5.1920    -2.4840     0.8910 c3         1 DN3       0.148600
     11 C24          7.1230    -2.1950    -0.4830 c3         1 DN3       0.148600
     12 C20          2.7960    -0.1590    -0.4460 ca         1 DN3      -0.070000
     13 N12         -0.4180     1.4700    -0.0050 ns         1 DN3      -0.473100
     14 C10         -1.8100     1.4920    -0.1190 ca         1 DN3       0.076600
     15 C11         -2.6190     0.3710     0.0300 ca         1 DN3      -0.100000
     16 C6          -4.0030     0.4970    -0.0800 ca         1 DN3      -0.116500
     17 C7          -4.5890     1.7330    -0.3350 ca         1 DN3      -0.145000
     18 C8          -3.7760     2.8470    -0.4760 ca         1 DN3      -0.100000
     19 C9          -2.4020     2.7330    -0.3730 ca         1 DN3      -0.169000
     20 C2          -4.8150    -0.7030     0.0850 cc         1 DN3       0.455000
     21 N1          -6.1470    -0.7830     0.0140 na         1 DN3      -0.162400
     22 N5          -6.5180    -2.0340     0.2180 nc         1 DN3      -0.206800
     23 N4          -5.4490    -2.7000     0.4080 nd         1 DN3      -0.040000
     24 N3          -4.3760    -1.9180     0.3340 nd         1 DN3      -0.377000
     25 H1           1.6160     2.4760     1.3460 ha         1 DN3       0.129000
     26 H2           4.0170     2.8440     1.6280 ha         1 DN3       0.136000
     27 H3           5.6500     1.3010     0.6100 ha         1 DN3       0.146000
     28 H4           4.6440    -1.6050    -1.5620 h1         1 DN3       0.040700
     29 H5           5.8380    -0.3140    -1.5450 h1         1 DN3       0.040700
     30 H7           5.8170    -2.9230     1.6690 h1         1 DN3       0.033200
     31 H8           4.3620    -1.9760     1.3840 h1         1 DN3       0.033200
     32 H9           4.7740    -3.3080     0.2920 h1         1 DN3       0.033200
     33 H10          7.7330    -1.4620    -1.0110 h1         1 DN3       0.033200
     34 H11          7.7390    -2.6400     0.3000 h1         1 DN3       0.033200
     35 H12          6.8650    -2.9940    -1.1970 h1         1 DN3       0.033200
     36 H13          2.4530    -1.0150    -1.0140 ha         1 DN3       0.153000
     37 H14          0.0130     2.3810     0.0120 hn         1 DN3       0.321500
     38 H15         -2.1960    -0.5970     0.2390 ha         1 DN3       0.192000
     39 H16         -5.6610     1.8470    -0.4220 ha         1 DN3       0.126000
     40 H17         -4.2170     3.8140    -0.6750 ha         1 DN3       0.137000
     41 H18         -1.7800     3.6120    -0.4910 ha         1 DN3       0.133000
     42 H19         -6.8410    -0.0710    -0.1630 hn         1 DN3       0.334700
@<TRIPOS>BOND
     1     1     2 2   
     2     2     3 1   
     3     2    13 1   
     4     3     4 ar  
     5     3    12 ar  
     6     4     5 ar  
     7     4    25 1   
     8     5     6 ar  
     9     5    26 1   
    10     6     7 ar  
    11     6    27 1   
    12     7     8 1   
    13     7    12 ar  
    14     8     9 1   
    15     8    28 1   
    16     8    29 1   
    17     9    10 1   
    18     9    11 1   
    19    10    30 1   
    20    10    31 1   
    21    10    32 1   
    22    11    33 1   
    23    11    34 1   
    24    11    35 1   
    25    12    36 1   
    26    13    14 1   
    27    13    37 1   
    28    14    15 ar  
    29    14    19 ar  
    30    15    16 ar  
    31    15    38 1   
    32    16    17 ar  
    33    16    20 1   
    34    17    18 ar  
    35    17    39 1   
    36    18    19 ar  
    37    18    40 1   
    38    19    41 1   
    39    20    21 1   
    40    20    24 2   
    41    21    22 1   
    42    21    42 1   
    43    22    23 2   
    44    23    24 1   
@<TRIPOS>SUBSTRUCTURE
     1 DN3         1 TEMP              0 ****  ****    0 ROOT
