@<TRIPOS>MOLECULE
DN4
   71    75     1     0     0
SMALL
abcg2


@<TRIPOS>ATOM
      1 PA        -401.1830  -938.7920     3.4890 p5         1 DN4       1.478800
      2 O1A       -400.2010  -939.2750     2.4720 o          1 DN4      -0.851500
      3 O2A       -401.8760  -939.7500     4.3960 o          1 DN4      -0.851500
      4 O5B       -400.4940  -937.6760     4.4430 os         1 DN4      -0.579400
      5 C5B       -399.6120  -936.7010     3.8870 c3         1 DN4       0.226600
      6 C4B       -399.4330  -935.5600     4.8640 c5         1 DN4       0.153300
      7 O4B       -400.6780  -934.8230     4.9850 os         1 DN4      -0.528000
      8 C3B       -399.0220  -935.9710     6.2790 c5         1 DN4       0.144300
      9 O3B       -398.0860  -935.0460     6.7940 oh         1 DN4      -0.837000
     10 C2B       -400.3600  -935.9300     7.0460 c5         1 DN4       0.205300
     11 O2B       -400.3010  -935.6220     8.4120 os         1 DN4      -0.576400
     12 C1B       -401.1120  -934.8100     6.3240 c5         1 DN4       0.283300
     13 N9A       -402.5560  -934.9670     6.3440 na         1 DN4      -0.257300
     14 C8A       -403.3120  -935.7660     5.5160 cc         1 DN4       0.457700
     15 N7A       -404.5930  -935.7320     5.8060 nd         1 DN4      -0.589100
     16 C5A       -404.6860  -934.8790     6.8900 ca         1 DN4      -0.097600
     17 C6A       -405.7770  -934.4120     7.6460 ca         1 DN4       0.396900
     18 N6A       -407.0440  -934.7890     7.4080 nv         1 DN4      -1.104900
     19 N1A       -405.5290  -933.5540     8.6560 nb         1 DN4      -0.350000
     20 C2A       -404.2650  -933.1840     8.8940 ca         1 DN4       0.113900
     21 N3A       -403.1610  -933.5520     8.2470 nb         1 DN4      -0.103000
     22 C4A       -403.4260  -934.3990     7.2450 ca         1 DN4       0.117500
     23 O3        -402.2770  -937.8320     2.7440 os         1 DN4      -0.755800
     24 PN        -403.7060  -938.2290     2.0620 p5         1 DN4       1.469800
     25 O1N       -404.7730  -938.1650     3.1040 o          1 DN4      -0.842000
     26 O2N       -403.5530  -939.4330     1.1980 o          1 DN4      -0.842000
     27 O5D       -403.8480  -936.9570     1.0560 os         1 DN4      -0.605400
     28 C5D       -404.0270  -935.6530     1.6050 c3         1 DN4       0.218600
     29 C4D       -403.3380  -934.6630     0.6780 c5         1 DN4       0.120300
     30 O4D       -403.6020  -933.3070     1.1340 os         1 DN4      -0.481000
     31 C3D       -401.8160  -934.7730     0.6480 c5         1 DN4       0.110300
     32 O3D       -401.2670  -934.2040    -0.5310 oh         1 DN4      -0.733000
     33 C2D       -401.4240  -933.8930     1.8420 c5         1 DN4       0.138300
     34 O2D       -400.1530  -933.2890     1.7900 oh         1 DN4      -0.721000
     35 C1D       -402.5050  -932.8020     1.8170 c5         1 DN4       0.278300
     36 N1N       -402.9020  -932.3960     3.2160 na         1 DN4       0.019300
     37 C2N       -401.9400  -931.8780     4.0020 ca         1 DN4      -0.037000
     38 C3N       -402.2240  -931.4360     5.2770 ca         1 DN4      -0.144600
     39 C7N       -401.0990  -930.8690     6.1510 c          1 DN4       0.722600
     40 O7N       -399.9400  -930.9810     5.6900 o          1 DN4      -0.676500
     41 C4N       -403.5390  -931.5310     5.7260 ca         1 DN4       0.014000
     42 C5N       -404.5100  -932.0970     4.9120 ca         1 DN4      -0.152000
     43 C6N       -404.1680  -932.5270     3.6480 ca         1 DN4      -0.039300
     44 P2B       -399.3920  -936.5640     9.4750 p5         1 DN4       1.299900
     45 O1X       -399.7260  -938.0080     9.1480 o          1 DN4      -0.912833
     46 O2X       -397.9380  -936.1820     9.1470 o          1 DN4      -0.912833
     47 O3X       -399.8660  -936.0630    10.8240 o          1 DN4      -0.912833
     48 O8N       -401.4530  -930.3580     7.2350 o          1 DN4      -0.676500
     49 H2        -398.6380  -937.1520     3.6820 h1         1 DN4      -0.002800
     50 H3        -400.0170  -936.3180     2.9490 h1         1 DN4      -0.002800
     51 H4        -398.6830  -934.8790     4.4540 h1         1 DN4       0.031700
     52 H5        -398.6090  -936.9830     6.2840 h1         1 DN4       0.068700
     53 H6        -397.9170  -935.3720     7.7300 ho         1 DN4       0.604000
     54 H7        -400.8810  -936.8760     6.8780 h1         1 DN4       0.077700
     55 H8        -400.8960  -933.8540     6.8070 h2         1 DN4       0.112700
     56 H9        -402.8590  -936.3410     4.7260 h5         1 DN4       0.116800
     57 H10       -407.7960  -934.3690     7.9280 hn         1 DN4       0.480000
     58 H11       -407.2640  -935.3660     6.6140 hn         1 DN4       0.480000
     59 H12       -404.1270  -932.4940     9.7190 h5         1 DN4       0.025100
     60 H14       -403.6060  -935.5900     2.6080 h1         1 DN4       0.040200
     61 H15       -405.0910  -935.4140     1.6670 h1         1 DN4       0.040200
     62 H16       -403.7550  -934.7450    -0.3260 h1         1 DN4       0.066700
     63 H17       -401.4840  -935.8030     0.7850 h1         1 DN4       0.133700
     64 H18       -401.5090  -934.7690    -1.2770 ho         1 DN4       0.496000
     65 H19       -401.5370  -934.4780     2.7570 h1         1 DN4       0.132700
     66 H20       -399.4790  -933.9550     1.9760 ho         1 DN4       0.544000
     67 H21       -402.1410  -931.8870     1.3470 h2         1 DN4       0.087700
     68 H22       -400.9440  -931.8260     3.5890 h4         1 DN4       0.203000
     69 H23       -403.7810  -931.1700     6.7140 ha         1 DN4       0.167000
     70 H24       -405.5320  -932.2060     5.2440 ha         1 DN4       0.136000
     71 H25       -404.8680  -932.9640     2.9550 h4         1 DN4       0.165000
@<TRIPOS>BOND
     1     1     2 1   
     2     1     3 1   
     3     1     4 1   
     4     1    23 1   
     5     4     5 1   
     6     5     6 1   
     7     5    49 1   
     8     5    50 1   
     9     6     7 1   
    10     6     8 1   
    11     6    51 1   
    12     7    12 1   
    13     8     9 1   
    14     8    10 1   
    15     8    52 1   
    16     9    53 1   
    17    10    11 1   
    18    10    12 1   
    19    10    54 1   
    20    11    44 1   
    21    12    13 1   
    22    12    55 1   
    23    13    14 1   
    24    13    22 1   
    25    14    15 2   
    26    14    56 1   
    27    15    16 1   
    28    16    17 ar  
    29    16    22 ar  
    30    17    18 1   
    31    17    19 ar  
    32    18    57 1   
    33    18    58 1   
    34    19    20 ar  
    35    20    21 ar  
    36    20    59 1   
    37    21    22 ar  
    38    23    24 1   
    39    24    25 1   
    40    24    26 1   
    41    24    27 1   
    42    27    28 1   
    43    28    29 1   
    44    28    60 1   
    45    28    61 1   
    46    29    30 1   
    47    29    31 1   
    48    29    62 1   
    49    30    35 1   
    50    31    32 1   
    51    31    33 1   
    52    31    63 1   
    53    32    64 1   
    54    33    34 1   
    55    33    35 1   
    56    33    65 1   
    57    34    66 1   
    58    35    36 1   
    59    35    67 1   
    60    36    37 1   
    61    36    43 2   
    62    37    38 ar  
    63    37    68 1   
    64    38    39 1   
    65    38    41 ar  
    66    39    40 1   
    67    39    48 1   
    68    41    42 ar  
    69    41    69 1   
    70    42    43 ar  
    71    42    70 1   
    72    43    71 1   
    73    44    45 1   
    74    44    46 1   
    75    44    47 1   
@<TRIPOS>SUBSTRUCTURE
     1 DN4         1 TEMP              0 ****  ****    0 ROOT
