@<TRIPOS>MOLECULE
DN4
   71    75     1     0     0
SMALL
No Charge or Current Charge


@<TRIPOS>ATOM
      1 PA         401.3160  -938.6430     3.3900 p5         1 DN4       1.478800
      2 O1A       -400.2800  -939.2870     2.5300 o          1 DN4      -0.851500
      3 O2A        402.1090  -939.6290     4.1810 o          1 DN4      -0.851500
      4 O5B       -400.6350  -937.6100     4.4170 os         1 DN4      -0.579400
      5 C5B        399.5720  -936.7670     3.9640 c3         1 DN4       0.226600
      6 C4B       -399.3330  -935.5950     4.9700 c5         1 DN4       0.153300
      7 O4B        400.5420  -934.7960     5.1630 os         1 DN4      -0.528000
      8 C3B       -398.8780  -936.0470     6.4050 c5         1 DN4       0.144300
      9 O3B        398.0500  -935.0500     7.0460 oh         1 DN4      -0.837000
     10 C2B       -400.2900  -936.2350     7.0840 c5         1 DN4       0.205300
     11 O2B        400.2590  -936.1570     8.5480 os         1 DN4      -0.576400
     12 C1B       -401.0210  -934.9820     6.5170 c5         1 DN4       0.283300
     13 N9A        402.4790  -934.9870     6.5190 na         1 DN4      -0.257300
     14 C8A       -403.2870  -935.8980     5.8330 cc         1 DN4       0.457700
     15 N7A        404.5920  -935.7110     6.1220 nd         1 DN4      -0.589100
     16 C5A       -404.5700  -934.6620     7.0460 ca         1 DN4      -0.097600
     17 C6A        405.6380  -934.0350     7.7220 ca         1 DN4       0.396900
     18 N6A       -406.9380  -934.3890     7.5430 nv         1 DN4      -1.104900
     19 N1A        405.4200  -933.0390     8.5950 nb         1 DN4      -0.350000
     20 C2A       -404.1240  -932.6890     8.7870 ca         1 DN4       0.113900
     21 N3A        403.0390  -933.2320     8.1840 nb         1 DN4      -0.103000
     22 C4A       -403.2950  -934.2200     7.3020 ca         1 DN4       0.117500
     23 O3         402.1750  -937.5720     2.6210 os         1 DN4      -0.755800
     24 PN        -403.4590  -938.1970     1.9620 p5         1 DN4       1.469800
     25 O1N        404.6270  -938.2660     2.8870 o          1 DN4      -0.842000
     26 O2N       -403.2190  -939.4660     1.2140 o          1 DN4      -0.842000
     27 O5D        403.6850  -937.0160     0.8940 os         1 DN4      -0.605400
     28 C5D       -404.0850  -935.7170     1.3470 c3         1 DN4       0.218600
     29 C4D        403.3120  -934.6630     0.5030 c5         1 DN4       0.120300
     30 O4D       -403.5340  -933.3330     1.0340 os         1 DN4      -0.481000
     31 C3D        401.7550  -934.8130     0.5180 c5         1 DN4       0.110300
     32 O3D       -401.0990  -934.0790    -0.5460 oh         1 DN4      -0.733000
     33 C2D        401.4190  -934.1670     1.8890 c5         1 DN4       0.138300
     34 O2D       -400.0580  -933.7170     1.8360 oh         1 DN4      -0.721000
     35 C1D        402.4590  -932.9940     1.9560 c5         1 DN4       0.278300
     36 N1N       -402.9640  -932.6420     3.2970 na         1 DN4       0.019300
     37 C2N        402.1240  -932.0260     4.2370 ca         1 DN4      -0.037000
     38 C3N       -402.6170  -931.3160     5.3560 ca         1 DN4      -0.144600
     39 C7N        401.6730  -930.5750     6.2760 c          1 DN4       0.722600
     40 O7N       -400.4790  -930.5940     6.0160 o          1 DN4      -0.676500
     41 C4N        404.0040  -931.3240     5.6030 ca         1 DN4       0.014000
     42 C5N       -404.8470  -932.0700     4.7690 ca         1 DN4      -0.152000
     43 C6N        404.3160  -932.7520     3.6610 ca         1 DN4      -0.039300
     44 P2B       -399.1360  -936.9460     9.3890 p5         1 DN4       1.299900
     45 O1X        399.0270  -938.3420     8.8940 o          1 DN4      -0.912833
     46 O2X       -397.8410  -936.2300     9.2260 o          1 DN4      -0.912833
     47 O3X        399.5230  -936.9500    10.8240 o          1 DN4      -0.912833
     48 O8N       -402.1450  -929.9570     7.2190 o          1 DN4      -0.676500
     49 H2         398.6430  -937.3450     3.8750 h1         1 DN4      -0.002800
     50 H3        -399.7990  -936.3480     2.9760 h1         1 DN4      -0.002800
     51 H4         398.5700  -934.9470     4.5170 h1         1 DN4       0.031700
     52 H5        -398.3420  -937.0050     6.3540 h1         1 DN4       0.068700
     53 H6         397.8980  -935.4530     7.9820 ho         1 DN4       0.604000
     54 H7        -400.7790  -937.1700     6.7840 h1         1 DN4       0.077700
     55 H8         400.7160  -934.1110     7.1130 h2         1 DN4       0.112700
     56 H9        -402.8810  -936.6380     5.1550 h5         1 DN4       0.116800
     57 H10        407.6600  -933.7410     7.8450 hn         1 DN4       0.480000
     58 H11       -407.1520  -934.9960     6.7570 hn         1 DN4       0.480000
     59 H12        403.9340  -931.8860     9.4960 h5         1 DN4       0.025100
     60 H14       -403.8630  -935.5730     2.4130 h1         1 DN4       0.040200
     61 H15        405.1630  -935.5740     1.2020 h1         1 DN4       0.040200
     62 H16       -403.7070  -934.7060    -0.5200 h1         1 DN4       0.066700
     63 H17        401.4590  -935.8750     0.5020 h1         1 DN4       0.133700
     64 H18       -401.4570  -934.4130    -1.4020 ho         1 DN4       0.496000
     65 H19        401.5840  -934.8750     2.7150 h1         1 DN4       0.132700
     66 H20       -399.9140  -933.6380     0.8540 ho         1 DN4       0.544000
     67 H21        401.9820  -932.0770     1.5880 h2         1 DN4       0.087700
     68 H22       -401.0510  -932.0720     4.0340 h4         1 DN4       0.203000
     69 H23        404.4230  -930.7940     6.4570 ha         1 DN4       0.167000
     70 H24       -405.9110  -932.1300     4.9860 ha         1 DN4       0.136000
     71 H25        404.9690  -933.3420     3.0190 h4         1 DN4       0.165000
@<TRIPOS>BOND
     1     1     2 1   
     2     1     3 1   
     3     1     4 1   
     4     1    23 1   
     5     4     5 1   
     6     5     6 1   
     7     5    49 1   
     8     5    50 1   
     9     6     7 1   
    10     6     8 1   
    11     6    51 1   
    12     7    12 1   
    13     8     9 1   
    14     8    10 1   
    15     8    52 1   
    16     9    53 1   
    17    10    11 1   
    18    10    12 1   
    19    10    54 1   
    20    11    44 1   
    21    12    13 1   
    22    12    55 1   
    23    13    14 1   
    24    13    22 1   
    25    14    15 2   
    26    14    56 1   
    27    15    16 1   
    28    16    17 ar  
    29    16    22 ar  
    30    17    18 1   
    31    17    19 ar  
    32    18    57 1   
    33    18    58 1   
    34    19    20 ar  
    35    20    21 ar  
    36    20    59 1   
    37    21    22 ar  
    38    23    24 1   
    39    24    25 1   
    40    24    26 1   
    41    24    27 1   
    42    27    28 1   
    43    28    29 1   
    44    28    60 1   
    45    28    61 1   
    46    29    30 1   
    47    29    31 1   
    48    29    62 1   
    49    30    35 1   
    50    31    32 1   
    51    31    33 1   
    52    31    63 1   
    53    32    64 1   
    54    33    34 1   
    55    33    35 1   
    56    33    65 1   
    57    34    66 1   
    58    35    36 1   
    59    35    67 1   
    60    36    37 1   
    61    36    43 2   
    62    37    38 ar  
    63    37    68 1   
    64    38    39 1   
    65    38    41 ar  
    66    39    40 1   
    67    39    48 1   
    68    41    42 ar  
    69    41    69 1   
    70    42    43 ar  
    71    42    70 1   
    72    43    71 1   
    73    44    45 1   
    74    44    46 1   
    75    44    47 1   
@<TRIPOS>SUBSTRUCTURE
     1 DN4         1 TEMP              0 ****  ****    0 ROOT
