@<TRIPOS>MOLECULE
DN5
   51    54     1     0     0
SMALL
abcg2


@<TRIPOS>ATOM
      1 C10         -2.3910     0.5410     0.6440 ca         1 DN5      -0.068300
      2 C11         -2.5110    -0.4150     1.6470 ca         1 DN5      -0.103000
      3 C13         -4.3360    -1.4600     0.4920 ca         1 DN5       0.118000
      4 C15         -3.2620     0.4840    -0.4400 ca         1 DN5      -0.083000
      5 C18         -1.9730     3.0300     0.9810 c3         1 DN5      -0.046700
      6 C19         -2.9960     2.9970     2.1110 c3         1 DN5      -0.091100
      7 C20         -0.8780     4.0440     1.3040 c3         1 DN5      -0.091100
      8 C22          4.8880    -1.2610    -0.3260 ca         1 DN5       0.050600
      9 C23          5.4870    -0.1380     0.2200 ca         1 DN5       0.050600
     10 C25          6.7930    -0.1430     0.6440 ca         1 DN5      -0.097500
     11 C26          7.4980    -1.3450     0.4980 ca         1 DN5      -0.111500
     12 C27          6.8990    -2.4690    -0.0480 ca         1 DN5      -0.111500
     13 C28          5.5650    -2.4460    -0.4750 ca         1 DN5      -0.097500
     14 C1           1.4020     0.7150    -1.7470 c6         1 DN5       0.099500
     15 C2           2.7980     1.1910    -1.3520 c6         1 DN5      -0.116900
     16 C3           3.3420     0.3620    -0.2040 c5         1 DN5       0.395000
     17 C4           2.3610     0.3010     0.9570 c6         1 DN5      -0.116900
     18 C5           0.9850    -0.1420     0.4710 c6         1 DN5       0.099500
     19 N6           0.5210     0.7340    -0.5900 n          1 DN5      -0.408800
     20 C7          -0.5030     1.6130    -0.5260 c          1 DN5       0.612100
     21 O8          -0.7890     2.3380    -1.4700 o          1 DN5      -0.603100
     22 C9          -1.3560     1.6390     0.7450 c3         1 DN5      -0.089400
     23 C12         -3.4730    -1.4090     1.5740 ca         1 DN5      -0.097000
     24 C14         -4.2280    -0.5060    -0.5150 ca         1 DN5       0.119000
     25 CL6         -5.2930    -0.5420    -1.8700 cl         1 DN5      -0.169000
     26 CL7         -5.5280    -2.6990     0.4070 cl         1 DN5      -0.171000
     27 O21          3.6110    -0.9700    -0.6680 os         1 DN5      -0.343100
     28 O24          4.5980     0.8850     0.2350 os         1 DN5      -0.343100
     29 H1          -1.8520    -0.3890     2.5050 ha         1 DN5       0.117000
     30 H2          -3.1980     1.2160    -1.2340 ha         1 DN5       0.151000
     31 H3          -2.4810     3.3460     0.0660 hc         1 DN5       0.074700
     32 H4          -3.3730     4.0020     2.3040 hc         1 DN5       0.036367
     33 H5          -3.8530     2.3660     1.8750 hc         1 DN5       0.036367
     34 H6          -2.5550     2.6280     3.0410 hc         1 DN5       0.036367
     35 H7          -0.3710     3.7810     2.2360 hc         1 DN5       0.036367
     36 H8          -0.1220     4.1130     0.5200 hc         1 DN5       0.036367
     37 H9          -1.3040     5.0400     1.4340 hc         1 DN5       0.036367
     38 H11          8.5290    -1.3920     0.8210 ha         1 DN5       0.119000
     39 H12          7.4670    -3.3840    -0.1470 ha         1 DN5       0.119000
     40 H13          5.0940    -3.3210    -0.9030 ha         1 DN5       0.132500
     41 H14          0.9970     1.3490    -2.5290 h1         1 DN5       0.067200
     42 H15          1.4430    -0.3030    -2.1420 h1         1 DN5       0.067200
     43 H16          3.4720     1.1320    -2.2090 hc         1 DN5       0.071950
     44 H17          2.7490     2.2360    -1.0390 hc         1 DN5       0.071950
     45 H18          2.7270    -0.3820     1.7270 hc         1 DN5       0.071950
     46 H19          2.2850     1.2960     1.4040 hc         1 DN5       0.071950
     47 H20          1.0290    -1.1620     0.0800 h1         1 DN5       0.067200
     48 H21          0.2900    -0.1730     1.3030 h1         1 DN5       0.067200
     49 H22         -0.7330     1.4310     1.6190 hc         1 DN5       0.061700
     50 H23         -3.5560    -2.1450     2.3610 ha         1 DN5       0.132000
     51 H10          7.2570     0.7370     1.0690 ha         1 DN5       0.132500
@<TRIPOS>BOND
     1     1     2 ar  
     2     1     4 ar  
     3     1    22 1   
     4     2    23 ar  
     5     2    29 1   
     6     3    23 ar  
     7     3    24 ar  
     8     3    26 1   
     9     4    24 ar  
    10     4    30 1   
    11     5     6 1   
    12     5     7 1   
    13     5    22 1   
    14     5    31 1   
    15     6    32 1   
    16     6    33 1   
    17     6    34 1   
    18     7    35 1   
    19     7    36 1   
    20     7    37 1   
    21     8     9 ar  
    22     8    13 ar  
    23     8    27 1   
    24     9    10 ar  
    25     9    28 1   
    26    10    11 ar  
    27    10    51 1   
    28    11    12 ar  
    29    11    38 1   
    30    12    13 ar  
    31    12    39 1   
    32    13    40 1   
    33    14    15 1   
    34    14    19 1   
    35    14    41 1   
    36    14    42 1   
    37    15    16 1   
    38    15    43 1   
    39    15    44 1   
    40    16    17 1   
    41    16    27 1   
    42    16    28 1   
    43    17    18 1   
    44    17    45 1   
    45    17    46 1   
    46    18    19 1   
    47    18    47 1   
    48    18    48 1   
    49    19    20 1   
    50    20    21 2   
    51    20    22 1   
    52    22    49 1   
    53    23    50 1   
    54    24    25 1   
@<TRIPOS>SUBSTRUCTURE
     1 DN5         1 TEMP              0 ****  ****    0 ROOT
