@<TRIPOS>MOLECULE
DN5
   51    54     1     0     0
SMALL
No Charge or Current Charge


@<TRIPOS>ATOM
      1 C10         -2.3560     0.5220     0.6770 ca         1 DN5      -0.068300
      2 C11         -2.3020    -0.3600     1.7760 ca         1 DN5      -0.103000
      3 C13         -3.8430    -1.8830     0.6620 ca         1 DN5       0.118000
      4 C15         -3.1670     0.1890    -0.4290 ca         1 DN5      -0.083000
      5 C18         -2.4550     3.0960     0.6260 c3         1 DN5      -0.046700
      6 C19         -3.5500     3.0900     1.7220 c3         1 DN5      -0.091100
      7 C20         -1.6260     4.4030     0.7040 c3         1 DN5      -0.091100
      8 C22          4.7340    -1.4000    -0.4440 ca         1 DN5       0.050600
      9 C23          5.5860    -0.6410     0.3100 ca         1 DN5       0.050600
     10 C25          6.9070    -1.0390     0.5540 ca         1 DN5      -0.097500
     11 C26          7.3450    -2.2590    -0.0060 ca         1 DN5      -0.111500
     12 C27          6.4630    -3.0440    -0.7870 ca         1 DN5      -0.111500
     13 C28          5.1370    -2.6140    -1.0130 ca         1 DN5      -0.097500
     14 C1           1.8960     1.6250    -1.1790 c6         1 DN5       0.099500
     15 C2           3.3500     1.6220    -0.6590 c6         1 DN5      -0.116900
     16 C3           3.6390     0.3980     0.2260 c5         1 DN5       0.395000
     17 C4           2.6270     0.4000     1.3850 c6         1 DN5      -0.116900
     18 C5           1.1670     0.4000     0.8810 c6         1 DN5       0.099500
     19 N6           0.8640     1.4830    -0.1080 n          1 DN5      -0.408800
     20 C7          -0.4810     1.7870    -0.4360 c          1 DN5       0.612100
     21 O8          -0.7930     2.0250    -1.5980 o          1 DN5      -0.603100
     22 C9          -1.5470     1.8260     0.6950 c3         1 DN5      -0.089400
     23 C12         -3.0410    -1.5560     1.7670 ca         1 DN5      -0.097000
     24 C14         -3.9070    -1.0060    -0.4400 ca         1 DN5       0.119000
     25 Cl6         -4.9050    -1.3800    -1.8450 cl         1 DN5      -0.169000
     26 Cl7         -4.7590    -3.3910     0.6830 cl         1 DN5      -0.171000
     27 O21          3.5050    -0.8370    -0.5580 os         1 DN5      -0.343100
     28 O24          5.0010     0.4950     0.7670 os         1 DN5      -0.343100
     29 H1          -1.6920    -0.1210     2.6440 ha         1 DN5       0.117000
     30 H2          -3.2270     0.8530    -1.2870 ha         1 DN5       0.151000
     31 H3          -2.9700     3.1000    -0.3430 hc         1 DN5       0.074700
     32 H4          -4.1620     3.9980     1.6630 hc         1 DN5       0.036367
     33 H5          -4.2220     2.2320     1.6080 hc         1 DN5       0.036367
     34 H6          -3.1010     3.0450     2.7220 hc         1 DN5       0.036367
     35 H7          -1.0660     4.4540     1.6460 hc         1 DN5       0.036367
     36 H8          -0.9120     4.4740    -0.1240 hc         1 DN5       0.036367
     37 H9          -2.2820     5.2800     0.6500 hc         1 DN5       0.036367
     38 H11          8.3650    -2.5970     0.1640 ha         1 DN5       0.119000
     39 H12          6.8080    -3.9830    -1.2150 ha         1 DN5       0.119000
     40 H13          4.4470    -3.2050    -1.6110 ha         1 DN5       0.132500
     41 H14          1.7250     2.5620    -1.7280 h1         1 DN5       0.067200
     42 H15          1.7690     0.8030    -1.8990 h1         1 DN5       0.067200
     43 H16          4.0480     1.6380    -1.5070 hc         1 DN5       0.071950
     44 H17          3.5340     2.5400    -0.0860 hc         1 DN5       0.071950
     45 H18          2.7980    -0.4750     2.0260 hc         1 DN5       0.071950
     46 H19          2.7950     1.2840     2.0150 hc         1 DN5       0.071950
     47 H20          0.9510    -0.5690     0.4070 h1         1 DN5       0.067200
     48 H21          0.5150     0.4700     1.7590 h1         1 DN5       0.067200
     49 H22         -1.0160     1.8760     1.6500 hc         1 DN5       0.061700
     50 H23         -2.9930    -2.2300     2.6190 ha         1 DN5       0.132000
     51 H10          7.5720    -0.4250     1.1560 ha         1 DN5       0.132500
@<TRIPOS>BOND
     1     1     2 ar  
     2     1     4 ar  
     3     1    22 1   
     4     2    23 ar  
     5     2    29 1   
     6     3    23 ar  
     7     3    24 ar  
     8     3    26 1   
     9     4    24 ar  
    10     4    30 1   
    11     5     6 1   
    12     5     7 1   
    13     5    22 1   
    14     5    31 1   
    15     6    32 1   
    16     6    33 1   
    17     6    34 1   
    18     7    35 1   
    19     7    36 1   
    20     7    37 1   
    21     8     9 ar  
    22     8    13 ar  
    23     8    27 1   
    24     9    10 ar  
    25     9    28 1   
    26    10    11 ar  
    27    10    51 1   
    28    11    12 ar  
    29    11    38 1   
    30    12    13 ar  
    31    12    39 1   
    32    13    40 1   
    33    14    15 1   
    34    14    19 1   
    35    14    41 1   
    36    14    42 1   
    37    15    16 1   
    38    15    43 1   
    39    15    44 1   
    40    16    17 1   
    41    16    27 1   
    42    16    28 1   
    43    17    18 1   
    44    17    45 1   
    45    17    46 1   
    46    18    19 1   
    47    18    47 1   
    48    18    48 1   
    49    19    20 1   
    50    20    21 2   
    51    20    22 1   
    52    22    49 1   
    53    23    50 1   
    54    24    25 1   
@<TRIPOS>SUBSTRUCTURE
     1 DN5         1 TEMP              0 ****  ****    0 ROOT
