@<TRIPOS>MOLECULE
DN6
   34    36     1     0     0
SMALL
No Charge or Current Charge


@<TRIPOS>ATOM
      1 F24          5.5180     1.6450     1.3150 f          1 DN6      -0.110000
      2 C7           5.3780     1.0410     0.1140 c3         1 DN6       0.359300
      3 F22          5.0620     2.0060    -0.7790 f          1 DN6      -0.110000
      4 F23          6.5990     0.5760    -0.2380 f          1 DN6      -0.110000
      5 C6           4.3160    -0.0630     0.1670 ca         1 DN6      -0.204300
      6 C1           4.6830    -1.4150     0.3280 ca         1 DN6      -0.038000
      7 C5           2.9470     0.2710     0.0780 ca         1 DN6      -0.006000
      8 C4           1.9430    -0.7240     0.1320 ca         1 DN6      -0.163600
      9 C3           2.3380    -2.0760     0.2850 ca         1 DN6      -0.060000
     10 C2           3.6980    -2.4110     0.3830 ca         1 DN6      -0.124000
     11 C8           0.4860    -0.3130     0.0290 c          1 DN6       0.619700
     12 O21          0.1710     0.8640    -0.1030 o          1 DN6      -0.554100
     13 N9          -0.4420    -1.3470     0.0870 ns         1 DN6      -0.144000
     14 C10         -1.8650    -1.3710     0.0390 ca         1 DN6      -0.019000
     15 C15         -2.4870    -2.6310     0.0420 ca         1 DN6      -0.150000
     16 C14         -3.8840    -2.7390    -0.0030 ca         1 DN6      -0.081000
     17 C13         -4.6790    -1.5840    -0.0480 ca         1 DN6      -0.124000
     18 C12         -4.0820    -0.3030    -0.0480 ca         1 DN6      -0.114500
     19 C11         -2.6710    -0.2100    -0.0030 ca         1 DN6      -0.083000
     20 C16         -4.9050     0.9170    -0.0920 cc         1 DN6       0.454000
     21 N20         -6.2690     0.9710    -0.1380 na         1 DN6      -0.212700
     22 N19         -6.6940     2.2590    -0.1690 nc         1 DN6      -0.204800
     23 N18         -5.5960     2.9640    -0.1420 nd         1 DN6      -0.039000
     24 N17         -4.4780     2.1640    -0.0940 nd         1 DN6      -0.376000
     25 H1           5.7300    -1.7020     0.4130 ha         1 DN6       0.134000
     26 H2           2.6630     1.3170    -0.0330 ha         1 DN6       0.156000
     27 H3           1.6080    -2.8810     0.3340 ha         1 DN6       0.118000
     28 H4           3.9900    -3.4520     0.5050 ha         1 DN6       0.127000
     29 H5          -0.0290    -2.2640     0.1840 hn         1 DN6       0.154000
     30 H6          -1.8840    -3.5370     0.0760 ha         1 DN6       0.115000
     31 H7          -4.3540    -3.7210    -0.0010 ha         1 DN6       0.120000
     32 H8          -5.7600    -1.6960    -0.0810 ha         1 DN6       0.109000
     33 H9          -2.2180     0.7770     0.0020 ha         1 DN6       0.176000
     34 H10         -6.9080     0.1870    -0.1480 hn         1 DN6       0.386000
@<TRIPOS>BOND
     1     1     2 1   
     2     2     3 1   
     3     2     4 1   
     4     2     5 1   
     5     5     6 ar  
     6     5     7 ar  
     7     6    10 ar  
     8     6    25 1   
     9     7     8 ar  
    10     7    26 1   
    11     8     9 ar  
    12     8    11 1   
    13     9    10 ar  
    14     9    27 1   
    15    10    28 1   
    16    11    12 2   
    17    11    13 1   
    18    13    14 1   
    19    13    29 1   
    20    14    15 ar  
    21    14    19 ar  
    22    15    16 ar  
    23    15    30 1   
    24    16    17 ar  
    25    16    31 1   
    26    17    18 ar  
    27    17    32 1   
    28    18    19 ar  
    29    18    20 1   
    30    19    33 1   
    31    20    21 1   
    32    20    24 2   
    33    21    22 1   
    34    21    34 1   
    35    22    23 2   
    36    23    24 1   
@<TRIPOS>SUBSTRUCTURE
     1 DN6         1 TEMP              0 ****  ****    0 ROOT
