@<TRIPOS>MOLECULE
DN6
   34    36     1     0     0
SMALL
bcc


@<TRIPOS>ATOM
      1 F24          5.7320     1.5600     0.6320 f          1 DN6      -0.231300
      2 C7           5.2130     0.8780    -0.4000 c3         1 DN6       0.723200
      3 F22          4.7330     1.7800    -1.2600 f          1 DN6      -0.231300
      4 F23          6.2360     0.2610    -1.0030 f          1 DN6      -0.231300
      5 C6           4.1690    -0.0940     0.0570 ca         1 DN6      -0.204300
      6 C1           4.5720    -1.2690     0.6850 ca         1 DN6      -0.056000
      7 C5           2.8230     0.1890    -0.1020 ca         1 DN6      -0.024000
      8 C4           1.8640    -0.7190     0.3420 ca         1 DN6      -0.163600
      9 C3           2.2680    -1.8910     0.9720 ca         1 DN6      -0.078000
     10 C2           3.6180    -2.1600     1.1440 ca         1 DN6      -0.142000
     11 C8           0.4270    -0.3470     0.1590 c          1 DN6       0.686700
     12 O21          0.0820     0.8190     0.1140 o          1 DN6      -0.554100
     13 N9          -0.4230    -1.3980     0.0380 ns         1 DN6      -0.470100
     14 C10         -1.8120    -1.3840    -0.1140 ca         1 DN6       0.073600
     15 C15         -2.4160    -2.5960    -0.4590 ca         1 DN6      -0.168000
     16 C14         -3.7870    -2.6790    -0.6110 ca         1 DN6      -0.099000
     17 C13         -4.5860    -1.5610    -0.4270 ca         1 DN6      -0.142000
     18 C12         -3.9890    -0.3530    -0.0830 ca         1 DN6      -0.114500
     19 C11         -2.6070    -0.2590     0.0770 ca         1 DN6      -0.101000
     20 C16         -4.7850     0.8510     0.1230 cc         1 DN6       0.454000
     21 N20         -6.1090     0.9650    -0.0110 na         1 DN6      -0.162400
     22 N19         -6.4670     2.2080     0.2580 nc         1 DN6      -0.204800
     23 N18         -5.3970     2.8350     0.5490 nd         1 DN6      -0.039000
     24 N17         -4.3370     2.0350     0.4770 nd         1 DN6      -0.376000
     25 H1           5.6200    -1.4980     0.8210 ha         1 DN6       0.152000
     26 H2           2.5000     1.1050    -0.5780 ha         1 DN6       0.174000
     27 H3           1.5440    -2.5980     1.3600 ha         1 DN6       0.136000
     28 H4           3.9260    -3.0690     1.6420 ha         1 DN6       0.145000
     29 H5          -0.0060    -2.3120    -0.0460 hn         1 DN6       0.320500
     30 H6          -1.8050    -3.4780    -0.6110 ha         1 DN6       0.133000
     31 H7          -4.2370    -3.6250    -0.8800 ha         1 DN6       0.138000
     32 H8          -5.6570    -1.6510    -0.5510 ha         1 DN6       0.127000
     33 H9          -2.1740     0.6890     0.3510 ha         1 DN6       0.194000
     34 H10         -6.8070     0.2820    -0.2720 hn         1 DN6       0.335700
@<TRIPOS>BOND
     1     1     2 1   
     2     2     3 1   
     3     2     4 1   
     4     2     5 1   
     5     5     6 ar  
     6     5     7 ar  
     7     6    10 ar  
     8     6    25 1   
     9     7     8 ar  
    10     7    26 1   
    11     8     9 ar  
    12     8    11 1   
    13     9    10 ar  
    14     9    27 1   
    15    10    28 1   
    16    11    12 2   
    17    11    13 1   
    18    13    14 1   
    19    13    29 1   
    20    14    15 ar  
    21    14    19 ar  
    22    15    16 ar  
    23    15    30 1   
    24    16    17 ar  
    25    16    31 1   
    26    17    18 ar  
    27    17    32 1   
    28    18    19 ar  
    29    18    20 1   
    30    19    33 1   
    31    20    21 1   
    32    20    24 2   
    33    21    22 1   
    34    21    34 1   
    35    22    23 2   
    36    23    24 1   
@<TRIPOS>SUBSTRUCTURE
     1 DN6         1 TEMP              0 ****  ****    0 ROOT
