@<TRIPOS>MOLECULE
DN7
   24    25     1     0     0
SMALL
No Charge or Current Charge


@<TRIPOS>ATOM
      1 C12          1.6370     0.5370     0.8710 ca         1 DN7      -0.082500
      2 C8          -4.7100     0.1170     0.4910 ca         1 DN7      -0.057000
      3 C7          -3.6050    -0.7460     0.4670 ca         1 DN7      -0.196000
      4 C3           2.2590    -1.2050    -0.7090 ca         1 DN7      -0.082500
      5 C2           2.6450    -0.1470     0.1490 ca         1 DN7      -0.127600
      6 C1           4.1080     0.2420     0.2950 c          1 DN7       0.712600
      7 C4           0.9060    -1.5640    -0.8430 ca         1 DN7      -0.136500
      8 C5          -0.0840    -0.8680    -0.1330 ca         1 DN7       0.064100
      9 C6          -2.4520    -0.3760    -0.2460 ca         1 DN7       0.595300
     10 O1           4.3980     1.1590     1.0510 o          1 DN7      -0.719500
     11 O2           4.9460    -0.3760    -0.3470 o          1 DN7      -0.719500
     12 O3          -1.3970    -1.2590    -0.2670 os         1 DN7      -0.374400
     13 C9          -4.6100     1.3230    -0.2170 ca         1 DN7      -0.225000
     14 C10         -3.4280     1.6140    -0.9170 ca         1 DN7       0.376900
     15 N1          -2.3640     0.7820    -0.9410 nb         1 DN7      -0.716000
     16 C11          0.2850     0.1770     0.7350 ca         1 DN7      -0.136500
     17 H1           1.9010     1.3500     1.5440 ha         1 DN7       0.130000
     18 H4           3.0080    -1.7560    -1.2740 ha         1 DN7       0.130000
     19 H5           0.6250    -2.3810    -1.5020 ha         1 DN7       0.098000
     20 H7          -5.4370     2.0280    -0.2320 ha         1 DN7       0.114000
     21 H8          -3.3300     2.5420    -1.4790 h4         1 DN7       0.015100
     22 H9          -0.4690     0.7090     1.3090 ha         1 DN7       0.098000
     23 H2          -5.6140    -0.1410     1.0400 ha         1 DN7       0.106000
     24 H3          -3.6300    -1.6930     0.9950 ha         1 DN7       0.131000
@<TRIPOS>BOND
     1     1     5 ar  
     2     1    16 ar  
     3     1    17 1   
     4     2     3 ar  
     5     2    13 ar  
     6     2    23 1   
     7     3     9 ar  
     8     3    24 1   
     9     4     5 ar  
    10     4     7 ar  
    11     4    18 1   
    12     5     6 1   
    13     6    10 1   
    14     6    11 1   
    15     7     8 ar  
    16     7    19 1   
    17     8    12 1   
    18     8    16 ar  
    19     9    12 1   
    20     9    15 ar  
    21    13    14 ar  
    22    13    20 1   
    23    14    15 ar  
    24    14    21 1   
    25    16    22 1   
@<TRIPOS>SUBSTRUCTURE
     1 DN7         1 TEMP              0 ****  ****    0 ROOT
