@<TRIPOS>MOLECULE
DN7
   24    25     1     0     0
SMALL
abcg2


@<TRIPOS>ATOM
      1 C12          1.8330     0.4540     1.1010 ca         1 DN7      -0.082500
      2 C8          -4.7540    -0.0080     0.0430 ca         1 DN7      -0.057000
      3 C7          -3.7100    -0.7990     0.4730 ca         1 DN7      -0.196000
      4 C3           1.9520    -0.9700    -0.8160 ca         1 DN7      -0.082500
      5 C2           2.5800    -0.0850     0.0550 ca         1 DN7      -0.127600
      6 C1           4.0480     0.2810    -0.1230 c          1 DN7       0.712600
      7 C4           0.6150    -1.3080    -0.6570 ca         1 DN7      -0.136500
      8 C5          -0.1020    -0.7590     0.3930 ca         1 DN7       0.064100
      9 C6          -2.4150    -0.3710     0.1730 ca         1 DN7       0.595300
     10 O1           4.5260     1.0850     0.6990 o          1 DN7      -0.719500
     11 O2           4.6440    -0.2560    -1.0770 o          1 DN7      -0.719500
     12 O3          -1.4040    -1.1610     0.5970 os         1 DN7      -0.374400
     13 C9          -4.4830     1.1660    -0.6580 ca         1 DN7      -0.225000
     14 C10         -3.1600     1.4820    -0.8950 ca         1 DN7       0.376900
     15 N1          -2.1390     0.7270    -0.4880 nb         1 DN7      -0.716000
     16 C11          0.4980     0.1250     1.2750 ca         1 DN7      -0.136500
     17 H1           2.3060     1.1410     1.7900 ha         1 DN7       0.130000
     18 H4           2.5140    -1.4010    -1.6330 ha         1 DN7       0.130000
     19 H5           0.1350    -2.0000    -1.3380 ha         1 DN7       0.098000
     20 H7          -5.2750     1.8120    -1.0070 ha         1 DN7       0.114000
     21 H8          -2.8980     2.3830    -1.4380 h4         1 DN7       0.015100
     22 H9          -0.0700     0.5460     2.0960 ha         1 DN7       0.098000
     23 H2          -5.7740    -0.3010     0.2520 ha         1 DN7       0.106000
     24 H3          -3.8780    -1.7160     1.0220 ha         1 DN7       0.131000
@<TRIPOS>BOND
     1     1     5 ar  
     2     1    16 ar  
     3     1    17 1   
     4     2     3 ar  
     5     2    13 ar  
     6     2    23 1   
     7     3     9 ar  
     8     3    24 1   
     9     4     5 ar  
    10     4     7 ar  
    11     4    18 1   
    12     5     6 1   
    13     6    10 1   
    14     6    11 1   
    15     7     8 ar  
    16     7    19 1   
    17     8    12 1   
    18     8    16 ar  
    19     9    12 1   
    20     9    15 ar  
    21    13    14 ar  
    22    13    20 1   
    23    14    15 ar  
    24    14    21 1   
    25    16    22 1   
@<TRIPOS>SUBSTRUCTURE
     1 DN7         1 TEMP              0 ****  ****    0 ROOT
