@<TRIPOS>MOLECULE
DN8
   31    33     1     0     0
SMALL
bcc


@<TRIPOS>ATOM
      1 O21          0.0020     0.6880     0.0980 o          1 DN8      -0.557100
      2 C7           0.2940    -0.4940     0.1270 c          1 DN8       0.685700
      3 C4           1.7130    -0.9340     0.2980 ca         1 DN8      -0.156600
      4 C3           2.0640    -2.1290     0.9210 ca         1 DN8      -0.096000
      5 C2           3.4010    -2.4620     1.0780 ca         1 DN8      -0.135000
      6 C5           2.7080    -0.0700    -0.1540 ca         1 DN8      -0.047000
      7 C6           4.0370    -0.4270    -0.0010 ca         1 DN8      -0.029900
      8 BR1          5.3830     0.7320    -0.6360 br         1 DN8      -0.080100
      9 C1           4.3990    -1.6190     0.6130 ca         1 DN8      -0.079000
     10 N8          -0.6030    -1.5030    -0.0020 ns         1 DN8      -0.470100
     11 C9          -1.9910    -1.4280    -0.1370 ca         1 DN8       0.075600
     12 C14         -2.6540    -2.6190    -0.4510 ca         1 DN8      -0.169000
     13 C13         -4.0290    -2.6430    -0.5820 ca         1 DN8      -0.099000
     14 C12         -4.7740    -1.4870    -0.4120 ca         1 DN8      -0.144000
     15 C11         -4.1190    -0.3000    -0.1020 ca         1 DN8      -0.114500
     16 C10         -2.7320    -0.2630     0.0370 ca         1 DN8      -0.102000
     17 C15         -4.8580     0.9430     0.0870 cc         1 DN8       0.454000
     18 N19         -6.1820     1.1030     0.0140 na         1 DN8      -0.162400
     19 N18         -6.4800     2.3700     0.2430 nc         1 DN8      -0.205800
     20 N17         -5.3730     2.9670     0.4490 nd         1 DN8      -0.039000
     21 N16         -4.3490     2.1240     0.3610 nd         1 DN8      -0.376000
     22 H1           1.3100    -2.7980     1.3160 ha         1 DN8       0.134000
     23 H2           3.6720    -3.3850     1.5720 ha         1 DN8       0.141000
     24 H3           2.4350     0.8640    -0.6260 ha         1 DN8       0.172000
     25 H4           5.4380    -1.8910     0.7360 ha         1 DN8       0.152000
     26 H5          -0.2270    -2.4350    -0.0890 hn         1 DN8       0.321500
     27 H6          -2.0850    -3.5300    -0.5900 ha         1 DN8       0.133000
     28 H7          -4.5260    -3.5730    -0.8250 ha         1 DN8       0.138000
     29 H8          -5.8490    -1.5300    -0.5230 ha         1 DN8       0.126000
     30 H9          -2.2520     0.6690     0.2840 ha         1 DN8       0.195000
     31 H10         -6.9170     0.4370    -0.1760 hn         1 DN8       0.334700
@<TRIPOS>BOND
     1     1     2 2   
     2     2     3 1   
     3     2    10 1   
     4     3     4 ar  
     5     3     6 ar  
     6     4     5 ar  
     7     4    22 1   
     8     5     9 ar  
     9     5    23 1   
    10     6     7 ar  
    11     6    24 1   
    12     7     8 1   
    13     7     9 ar  
    14     9    25 1   
    15    10    11 1   
    16    10    26 1   
    17    11    12 ar  
    18    11    16 ar  
    19    12    13 ar  
    20    12    27 1   
    21    13    14 ar  
    22    13    28 1   
    23    14    15 ar  
    24    14    29 1   
    25    15    16 ar  
    26    15    17 1   
    27    16    30 1   
    28    17    18 1   
    29    17    21 2   
    30    18    19 1   
    31    18    31 1   
    32    19    20 2   
    33    20    21 1   
@<TRIPOS>SUBSTRUCTURE
     1 DN8         1 TEMP              0 ****  ****    0 ROOT
