@<TRIPOS>MOLECULE
DN8
   31    33     1     0     0
SMALL
No Charge or Current Charge


@<TRIPOS>ATOM
      1 O21          0.0970     0.7600     0.0410 o          1 DN8      -0.557100
      2 C7           0.3650    -0.4340     0.1190 c          1 DN8       0.618700
      3 C4           1.8030    -0.9060     0.2380 ca         1 DN8      -0.156600
      4 C3           2.1460    -2.2800     0.3300 ca         1 DN8      -0.078000
      5 C2           3.4920    -2.6740     0.4390 ca         1 DN8      -0.117000
      6 C5           2.8450     0.0520     0.2590 ca         1 DN8      -0.029000
      7 C6           4.1870    -0.3510     0.3680 ca         1 DN8      -0.029900
      8 Br1          5.5760     0.9640     0.3950 br         1 DN8      -0.080100
      9 C1           4.5130    -1.7120     0.4580 ca         1 DN8      -0.061000
     10 N8          -0.6010    -1.4340     0.1010 ns         1 DN8      -0.144000
     11 C9          -2.0220    -1.4020     0.0150 ca         1 DN8      -0.017000
     12 C14         -2.6890    -2.6370    -0.0550 ca         1 DN8      -0.151000
     13 C13         -4.0880    -2.6890    -0.1400 ca         1 DN8      -0.081000
     14 C12         -4.8390    -1.5040    -0.1540 ca         1 DN8      -0.126000
     15 C11         -4.1960    -0.2490    -0.0810 ca         1 DN8      -0.114500
     16 C10         -2.7840    -0.2100     0.0050 ca         1 DN8      -0.084000
     17 C15         -4.9720     1.0030    -0.0910 cc         1 DN8       0.454000
     18 N19         -6.3310     1.1100    -0.1690 na         1 DN8      -0.212700
     19 N18         -6.7080     2.4130    -0.1540 nc         1 DN8      -0.205800
     20 N17         -5.5860     3.0750    -0.0670 nd         1 DN8      -0.039000
     21 N16         -4.5000     2.2320    -0.0260 nd         1 DN8      -0.376000
     22 H1           1.3860    -3.0570     0.3190 ha         1 DN8       0.116000
     23 H2           3.7430    -3.7310     0.5080 ha         1 DN8       0.123000
     24 H3           2.6190     1.1140     0.1910 ha         1 DN8       0.154000
     25 H4           5.5530    -2.0220     0.5430 ha         1 DN8       0.134000
     26 H5          -0.2240    -2.3700     0.1620 hn         1 DN8       0.155000
     27 H6          -2.1220    -3.5650    -0.0460 ha         1 DN8       0.115000
     28 H7          -4.5930    -3.6520    -0.1960 ha         1 DN8       0.120000
     29 H8          -5.9220    -1.5740    -0.2200 ha         1 DN8       0.108000
     30 H9          -2.2950     0.7570     0.0660 ha         1 DN8       0.177000
     31 H10         -6.9970     0.3520    -0.2320 hn         1 DN8       0.385000
@<TRIPOS>BOND
     1     1     2 2   
     2     2     3 1   
     3     2    10 1   
     4     3     4 ar  
     5     3     6 ar  
     6     4     5 ar  
     7     4    22 1   
     8     5     9 ar  
     9     5    23 1   
    10     6     7 ar  
    11     6    24 1   
    12     7     8 1   
    13     7     9 ar  
    14     9    25 1   
    15    10    11 1   
    16    10    26 1   
    17    11    12 ar  
    18    11    16 ar  
    19    12    13 ar  
    20    12    27 1   
    21    13    14 ar  
    22    13    28 1   
    23    14    15 ar  
    24    14    29 1   
    25    15    16 ar  
    26    15    17 1   
    27    16    30 1   
    28    17    18 1   
    29    17    21 2   
    30    18    19 1   
    31    18    31 1   
    32    19    20 2   
    33    20    21 1   
@<TRIPOS>SUBSTRUCTURE
     1 DN8         1 TEMP              0 ****  ****    0 ROOT
