@<TRIPOS>MOLECULE
DNA
   22    23     1     0     0
SMALL
bcc


@<TRIPOS>ATOM
      1 O1A         -3.1670     1.4350     0.1910 o          1 DNA      -0.798300
      2 O1B         -3.6310    -0.7340     0.0270 o          1 DNA      -0.798300
      3 O1D         -0.8790     2.2520     0.2120 oh         1 DNA      -0.596100
      4 C1E          3.6840     0.2270    -0.1430 ca         1 DNA      -0.129000
      5 C1F          3.2210     1.5450     0.0190 ca         1 DNA      -0.186000
      6 C1G          2.7990    -0.8160    -0.2060 ca         1 DNA      -0.149000
      7 C1H          1.8760     1.7930     0.1020 ca         1 DNA      -0.068000
      8 C1I         -0.8760    -1.3840    -0.0790 ca         1 DNA      -0.038000
      9 C1J         -2.8370     0.2080     0.0840 c          1 DNA       0.937200
     10 C1K          0.4580    -1.6590    -0.1430 ca         1 DNA       0.002100
     11 C1L         -1.3590    -0.0610     0.0260 ca         1 DNA      -0.282600
     12 C1M         -0.4640     0.9950     0.0970 ca         1 DNA       0.213100
     13 C1N          1.4050    -0.5950    -0.1030 ca         1 DNA      -0.034000
     14 C1O          0.9390     0.7390     0.0370 ca         1 DNA      -0.086000
     15 HO1C         1.6510    -3.1230     0.2370 ho         1 DNA       0.397000
     16 HO1D        -1.9090     2.1490     0.2240 ho         1 DNA       0.514000
     17 H1E          4.7460     0.0370    -0.2250 ha         1 DNA       0.107000
     18 H1F          3.9290     2.3620     0.0710 ha         1 DNA       0.111000
     19 H1G          3.1850    -1.8170    -0.3520 ha         1 DNA       0.111000
     20 H1H          1.5240     2.8090     0.2180 ha         1 DNA       0.140000
     21 H1I         -1.5900    -2.1970    -0.1100 ha         1 DNA       0.154000
     22 O1C          0.8600    -2.9550    -0.2850 oh         1 DNA      -0.521100
@<TRIPOS>BOND
     1     1     9 1   
     2     2     9 1   
     3     3    12 1   
     4     3    16 1   
     5     4     5 ar  
     6     4     6 ar  
     7     4    17 1   
     8     5     7 ar  
     9     5    18 1   
    10     6    13 ar  
    11     6    19 1   
    12     7    14 ar  
    13     7    20 1   
    14     8    10 ar  
    15     8    11 ar  
    16     8    21 1   
    17     9    11 1   
    18    10    13 ar  
    19    10    22 1   
    20    11    12 ar  
    21    12    14 ar  
    22    13    14 ar  
    23    15    22 1   
@<TRIPOS>SUBSTRUCTURE
     1 DNA         1 TEMP              0 ****  ****    0 ROOT
