@<TRIPOS>MOLECULE
DNA
   22    23     1     0     0
SMALL
No Charge or Current Charge


@<TRIPOS>ATOM
      1 O1A         -3.2740     1.3680     0.1870 o          1 DNA      -0.693000
      2 O1B         -3.6490    -0.7460     0.0670 o          1 DNA      -0.693000
      3 O1D         -0.9010     2.2900     0.1770 oh         1 DNA      -0.635100
      4 C1E          3.7100     0.2030    -0.0830 ca         1 DNA      -0.111000
      5 C1F          3.2560     1.5250     0.0110 ca         1 DNA      -0.168000
      6 C1G          2.7890    -0.8540    -0.1230 ca         1 DNA      -0.131000
      7 C1H          1.8800     1.7940     0.0670 ca         1 DNA      -0.050000
      8 C1I         -0.9220    -1.3720    -0.0490 ca         1 DNA      -0.020000
      9 C1J         -2.8900     0.2090     0.1050 c          1 DNA       0.726600
     10 C1K          0.4530    -1.6520    -0.1050 ca         1 DNA       0.002100
     11 C1L         -1.3980    -0.0450     0.0470 ca         1 DNA      -0.282600
     12 C1M         -0.4540     1.0060     0.0850 ca         1 DNA       0.213100
     13 C1N          1.3970    -0.5990    -0.0670 ca         1 DNA      -0.034000
     14 C1O          0.9370     0.7390     0.0280 ca         1 DNA      -0.086000
     15 HO1C         1.8260    -2.9910    -0.2270 ho         1 DNA       0.436000
     16 HO1D        -1.8980     2.1990     0.1990 ho         1 DNA       0.553000
     17 H1E          4.7770    -0.0030    -0.1270 ha         1 DNA       0.089000
     18 H1F          3.9710     2.3450     0.0410 ha         1 DNA       0.093000
     19 H1G          3.1750    -1.8660    -0.1960 ha         1 DNA       0.093000
     20 H1H          1.5540     2.8290     0.1400 ha         1 DNA       0.122000
     21 H1I         -1.6210    -2.2060    -0.0810 ha         1 DNA       0.136000
     22 O1C          0.8470    -2.9610    -0.1970 oh         1 DNA      -0.560100
@<TRIPOS>BOND
     1     1     9 1   
     2     2     9 1   
     3     3    12 1   
     4     3    16 1   
     5     4     5 ar  
     6     4     6 ar  
     7     4    17 1   
     8     5     7 ar  
     9     5    18 1   
    10     6    13 ar  
    11     6    19 1   
    12     7    14 ar  
    13     7    20 1   
    14     8    10 ar  
    15     8    11 ar  
    16     8    21 1   
    17     9    11 1   
    18    10    13 ar  
    19    10    22 1   
    20    11    12 ar  
    21    12    14 ar  
    22    13    14 ar  
    23    15    22 1   
@<TRIPOS>SUBSTRUCTURE
     1 DNA         1 TEMP              0 ****  ****    0 ROOT
