@<TRIPOS>MOLECULE
DNB
   34    35     1     0     0
SMALL
No Charge or Current Charge


@<TRIPOS>ATOM
      1 O2          45.3930   -16.4860    67.7880 oh         1 DNB      -0.652000
      2 C2          46.3710   -15.4870    68.1310 c5         1 DNB       0.105300
      3 C3          45.8300   -14.0450    67.9030 c5         1 DNB       0.131300
      4 O3          45.1470   -13.9360    66.6460 oh         1 DNB      -0.649000
      5 C1          47.6140   -15.4580    67.1760 c5         1 DNB       0.223800
      6 N4          48.2210   -14.1070    67.3180 n7         1 DNB      -0.850400
      7 C4          47.1720   -13.2310    67.9390 c5         1 DNB       0.125500
      8 C5          47.5890   -12.8100    69.3840 c3         1 DNB       0.129600
      9 O5          48.9590   -12.3650    69.4220 oh         1 DNB      -0.660000
     10 C9          48.5620   -16.5820    67.6070 ca         1 DNB      -0.093300
     11 C6          49.2230   -16.5500    68.8530 ca         1 DNB      -0.113000
     12 C11         50.0950   -17.5860    69.2290 ca         1 DNB      -0.139000
     13 C10         50.3280   -18.6730    68.3720 ca         1 DNB       0.227000
     14 C8          49.6600   -18.7210    67.1060 ca         1 DNB       0.226000
     15 N3          49.8280   -19.7750    66.2170 nv         1 DNB      -1.046000
     16 C7          48.7940   -17.6730    66.7440 ca         1 DNB      -0.116000
     17 HO2         44.9010   -16.7080    68.6100 ho         1 DNB       0.448000
     18 H2          46.6840   -15.6120    69.1770 h1         1 DNB       0.045700
     19 H3          45.1570   -13.7380    68.7170 h1         1 DNB       0.044700
     20 HO3         44.8090   -14.8450    66.4710 ho         1 DNB       0.458000
     21 H1          47.2840   -15.6080    66.1360 h1         1 DNB       0.088700
     22 HN4         48.9990   -14.1620    67.9880 hn         1 DNB       0.431000
     23 H4          47.0570   -12.3040    67.3580 h1         1 DNB       0.088700
     24 H5          46.9130   -12.0160    69.7300 h1         1 DNB       0.046700
     25 H5'A        47.4620   -13.6640    70.0630 h1         1 DNB       0.046700
     26 HO5         49.0480   -11.6460    68.7570 ho         1 DNB       0.446000
     27 H6          49.0640   -15.7200    69.5380 ha         1 DNB       0.109000
     28 H9          50.5940   -17.5370    70.1940 ha         1 DNB       0.111000
     29 HN3         49.2230   -19.8390    65.4010 hn         1 DNB       0.430000
     30 HN3A        50.2310   -20.6450    66.5560 hn         1 DNB       0.430000
     31 H7          48.2880   -17.7080    65.7830 ha         1 DNB       0.116000
     32 N1          51.2120   -19.6590    68.7860 nv         1 DNB      -1.045000
     33 H8          51.5910   -20.2990    68.0920 hn         1 DNB       0.428500
     34 HN4A        51.7730   -19.5080    69.6220 hn         1 DNB       0.428500
@<TRIPOS>BOND
     1     1     2 1   
     2     1    17 1   
     3     2     3 1   
     4     2     5 1   
     5     2    18 1   
     6     3     4 1   
     7     3     7 1   
     8     3    19 1   
     9     4    20 1   
    10     5     6 1   
    11     5    10 1   
    12     5    21 1   
    13     6     7 1   
    14     6    22 1   
    15     7     8 1   
    16     7    23 1   
    17     8     9 1   
    18     8    24 1   
    19     8    25 1   
    20     9    26 1   
    21    10    11 ar  
    22    10    16 ar  
    23    11    12 ar  
    24    11    27 1   
    25    12    13 ar  
    26    12    28 1   
    27    13    14 ar  
    28    13    32 1   
    29    14    15 1   
    30    14    16 ar  
    31    15    29 1   
    32    15    30 1   
    33    16    31 1   
    34    32    33 1   
    35    32    34 1   
@<TRIPOS>SUBSTRUCTURE
     1 DNB         1 TEMP              0 ****  ****    0 ROOT
