@<TRIPOS>MOLECULE
DNB
   34    35     1     0     0
SMALL
abcg2


@<TRIPOS>ATOM
      1 O2          45.3290   -16.4070    67.7280 oh         1 DNB      -0.652000
      2 C2          46.3120   -15.4710    68.1580 c5         1 DNB       0.105300
      3 C3          45.8720   -14.0110    67.9820 c5         1 DNB       0.131300
      4 O3          45.1620   -13.8500    66.7550 oh         1 DNB      -0.649000
      5 C1          47.5630   -15.5730    67.2730 c5         1 DNB       0.223800
      6 N4          48.1540   -14.2180    67.3000 n7         1 DNB      -0.850400
      7 C4          47.2000   -13.2630    67.9070 c5         1 DNB       0.125500
      8 C5          47.6520   -12.7820    69.2840 c3         1 DNB       0.129600
      9 O5          48.9810   -12.2590    69.2590 oh         1 DNB      -0.660000
     10 C9          48.5250   -16.6590    67.6770 ca         1 DNB      -0.093300
     11 C6          49.1710   -16.6390    68.9130 ca         1 DNB      -0.113000
     12 C11         50.0450   -17.6610    69.2600 ca         1 DNB      -0.139000
     13 C10         50.2920   -18.7380    68.4070 ca         1 DNB       0.227000
     14 C8          49.6400   -18.7700    67.1570 ca         1 DNB       0.226000
     15 N3          49.7910   -19.8710    66.3020 nv         1 DNB      -1.046000
     16 C7          48.7810   -17.7230    66.8170 ca         1 DNB      -0.116000
     17 HO2         44.7140   -16.5690    68.4540 ho         1 DNB       0.448000
     18 H2          46.5740   -15.6470    69.2030 h1         1 DNB       0.045700
     19 H3          45.2530   -13.6670    68.8180 h1         1 DNB       0.044700
     20 HO3         44.6200   -14.6470    66.6480 ho         1 DNB       0.458000
     21 H1          47.2120   -15.7920    66.2590 h1         1 DNB       0.088700
     22 HN4         49.0260   -14.2100    67.8140 hn         1 DNB       0.431000
     23 H4          47.0810   -12.3860    67.2620 h1         1 DNB       0.088700
     24 H5          46.9460   -12.0330    69.6590 h1         1 DNB       0.046700
     25 H5'A        47.6780   -13.6140    69.9900 h1         1 DNB       0.046700
     26 HO5         48.9850   -11.4670    68.7050 ho         1 DNB       0.446000
     27 H6          49.0010   -15.8260    69.6080 ha         1 DNB       0.109000
     28 H9          50.5500   -17.6360    70.2200 ha         1 DNB       0.111000
     29 HN3         49.4810   -19.6830    65.3580 hn         1 DNB       0.430000
     30 HN3A        50.7150   -20.2810    66.2780 hn         1 DNB       0.430000
     31 H7          48.2940   -17.7520    65.8480 ha         1 DNB       0.116000
     32 N1          51.1080   -19.8050    68.8160 nv         1 DNB      -1.045000
     33 H8          51.6770   -20.2170    68.0890 hn         1 DNB       0.428500
     34 HN4A        51.6920   -19.5730    69.6070 hn         1 DNB       0.428500
@<TRIPOS>BOND
     1     1     2 1   
     2     1    17 1   
     3     2     3 1   
     4     2     5 1   
     5     2    18 1   
     6     3     4 1   
     7     3     7 1   
     8     3    19 1   
     9     4    20 1   
    10     5     6 1   
    11     5    10 1   
    12     5    21 1   
    13     6     7 1   
    14     6    22 1   
    15     7     8 1   
    16     7    23 1   
    17     8     9 1   
    18     8    24 1   
    19     8    25 1   
    20     9    26 1   
    21    10    11 ar  
    22    10    16 ar  
    23    11    12 ar  
    24    11    27 1   
    25    12    13 ar  
    26    12    28 1   
    27    13    14 ar  
    28    13    32 1   
    29    14    15 1   
    30    14    16 ar  
    31    15    29 1   
    32    15    30 1   
    33    16    31 1   
    34    32    33 1   
    35    32    34 1   
@<TRIPOS>SUBSTRUCTURE
     1 DNB         1 TEMP              0 ****  ****    0 ROOT
