@<TRIPOS>MOLECULE
DNC
   18    18     1     0     0
SMALL
No Charge or Current Charge


@<TRIPOS>ATOM
      1 C1           1.8720    -0.0900     0.0550 ca         1 DNC       0.096100
      2 O1           3.2350    -0.1430    -0.0730 oh         1 DNC      -0.515100
      3 C2           1.0620    -0.0180    -1.1000 ca         1 DNC       0.183100
      4 O2           1.6910    -0.0040    -2.3180 oh         1 DNC      -0.532100
      5 C3          -0.3520     0.0370    -0.9760 ca         1 DNC      -0.274200
      6 N1          -1.2670     0.1140    -2.1650 no         1 DNC       0.707200
      7 O3          -2.4860     0.1590    -1.9640 o          1 DNC      -0.394000
      8 O4          -0.7630     0.1310    -3.2960 o          1 DNC      -0.394000
      9 C4          -0.9230     0.0180     0.3240 ca         1 DNC       0.019000
     10 C5          -0.1090    -0.0550     1.4780 ca         1 DNC      -0.194200
     11 N2          -0.7260    -0.0740     2.8430 no         1 DNC       0.702200
     12 O5           0.0260    -0.1380     3.8240 o          1 DNC      -0.386000
     13 O6          -1.9600    -0.0250     2.9290 o          1 DNC      -0.386000
     14 C6           1.2950    -0.1090     1.3320 ca         1 DNC      -0.031000
     15 HO1          3.4290    -0.1200    -1.0380 ho         1 DNC       0.497000
     16 HO2          0.9940     0.0480    -3.0160 ho         1 DNC       0.539000
     17 H4          -2.0070     0.0590     0.4410 ha         1 DNC       0.187000
     18 H6           1.9490    -0.1650     2.2000 ha         1 DNC       0.178000
@<TRIPOS>BOND
     1     1     2 1   
     2     1     3 ar  
     3     1    14 ar  
     4     2    15 1   
     5     3     4 1   
     6     3     5 ar  
     7     4    16 1   
     8     5     6 1   
     9     5     9 ar  
    10     6     7 1   
    11     6     8 1   
    12     9    10 ar  
    13     9    17 1   
    14    10    11 1   
    15    10    14 ar  
    16    11    12 1   
    17    11    13 1   
    18    14    18 1   
@<TRIPOS>SUBSTRUCTURE
     1 DNC         1 TEMP              0 ****  ****    0 ROOT
