@<TRIPOS>MOLECULE
DNC
   18    18     1     0     0
SMALL
abcg2


@<TRIPOS>ATOM
      1 C1           1.8400    -0.0750     0.0440 ca         1 DNC       0.096100
      2 O1           3.1710    -0.1210    -0.0710 oh         1 DNC      -0.515100
      3 C2           1.0220     0.0070    -1.1070 ca         1 DNC       0.183100
      4 O2           1.6620     0.0390    -2.2600 oh         1 DNC      -0.532100
      5 C3          -0.3670     0.0460    -0.9290 ca         1 DNC      -0.274200
      6 N1          -1.2390     0.0930    -2.0750 no         1 DNC       0.707200
      7 O3          -2.4260     0.1500    -1.9040 o          1 DNC      -0.394000
      8 O4          -0.7210     0.0980    -3.1810 o          1 DNC      -0.394000
      9 C4          -0.9480     0.0160     0.3340 ca         1 DNC       0.019000
     10 C5          -0.1170    -0.0460     1.4240 ca         1 DNC      -0.194200
     11 N2          -0.6980    -0.0730     2.7520 no         1 DNC       0.702200
     12 O5           0.0540    -0.1330     3.6950 o          1 DNC      -0.386000
     13 O6          -1.9030    -0.0280     2.8480 o          1 DNC      -0.386000
     14 C6           1.2720    -0.0990     1.2940 ca         1 DNC      -0.031000
     15 HO1          3.4450    -0.2150    -0.9930 ho         1 DNC       0.497000
     16 HO2          1.0160     0.0800    -2.9930 ho         1 DNC       0.539000
     17 H4          -2.0210     0.0480     0.4420 ha         1 DNC       0.187000
     18 H6           1.9170    -0.1620     2.1600 ha         1 DNC       0.178000
@<TRIPOS>BOND
     1     1     2 1   
     2     1     3 ar  
     3     1    14 ar  
     4     2    15 1   
     5     3     4 1   
     6     3     5 ar  
     7     4    16 1   
     8     5     6 1   
     9     5     9 ar  
    10     6     7 1   
    11     6     8 1   
    12     9    10 ar  
    13     9    17 1   
    14    10    11 1   
    15    10    14 ar  
    16    11    12 1   
    17    11    13 1   
    18    14    18 1   
@<TRIPOS>SUBSTRUCTURE
     1 DNC         1 TEMP              0 ****  ****    0 ROOT
