@<TRIPOS>MOLECULE
DND
   68    72     1     0     0
SMALL
No Charge or Current Charge


@<TRIPOS>ATOM
      1 PN           1.8580    -2.6730     0.8020 p5         1 DND       1.471800
      2 O11          1.1550    -3.9120     1.2520 o          1 DND      -0.855500
      3 O12          2.7310    -2.0960     1.8650 o          1 DND      -0.855500
      4 O3P          0.8800    -1.6610     0.0980 os         1 DND      -0.680800
      5 O5D          2.7460    -3.0420    -0.4950 os         1 DND      -0.558400
      6 C5D          3.7940    -2.1900    -0.9890 c3         1 DND       0.218600
      7 C4D          3.2080    -0.9550    -1.7500 c5         1 DND       0.152300
      8 O4D          3.1930     0.2210    -0.9010 os         1 DND      -0.405000
      9 C3D          4.0810    -0.4900    -2.9570 c5         1 DND       0.106300
     10 O3D          3.4040     0.4330    -3.8210 oh         1 DND      -0.709000
     11 C2D          5.2340     0.2270    -2.1950 c5         1 DND       0.071300
     12 O2D          5.9330     1.1500    -3.0580 oh         1 DND      -0.709000
     13 C1D          4.4620     0.9230    -1.0110 c5         1 DND       0.283300
     14 N1N          5.1730     0.9730     0.2840 na         1 DND       0.019300
     15 C6N          4.5640     0.6270     1.5030 ca         1 DND      -0.045000
     16 C5N          5.2660     0.6230     2.7210 ca         1 DND      -0.145000
     17 C4N          6.6130     1.0100     2.7580 ca         1 DND      -0.002000
     18 C3N          7.2480     1.4200     1.5690 ca         1 DND      -0.184600
     19 C2N          6.5070     1.4080     0.3640 ca         1 DND      -0.026300
     20 C7N          8.6910     1.8740     1.5800 c          1 DND       0.728600
     21 O7N          9.1950     2.2200     0.5220 o          1 DND      -0.695500
     22 O8N          9.2930     1.8770     2.6430 o          1 DND      -0.695500
     23 PA           0.0760    -0.7810     1.1290 p5         1 DND       1.449800
     24 O13         -0.6080    -1.5450     2.2120 o          1 DND      -0.844000
     25 O14          0.8760     0.3650     1.6550 o          1 DND      -0.844000
     26 O5B         -0.9970    -0.2190     0.0630 os         1 DND      -0.566400
     27 C5B         -2.0770    -1.0400    -0.4140 c3         1 DND       0.232600
     28 C4B         -3.2590    -1.0700     0.5990 c5         1 DND       0.119300
     29 O4B         -3.5770     0.2610     1.0910 os         1 DND      -0.403000
     30 C3B         -4.5970    -1.6020     0.0040 c5         1 DND       0.088300
     31 O3B         -4.6480    -3.0340    -0.0920 oh         1 DND      -0.693000
     32 C2B         -5.5930    -1.0630     1.0660 c5         1 DND       0.095300
     33 O2B         -5.5430    -1.8710     2.2550 oh         1 DND      -0.703000
     34 C1B         -5.0130     0.3840     1.2560 c5         1 DND       0.316300
     35 N9A         -5.5120     1.3810     0.3080 na         1 DND      -0.298300
     36 C4A         -6.7870     1.8720     0.1870 ca         1 DND       0.103500
     37 N3A         -7.9080     1.5880     0.8810 nb         1 DND      -0.207000
     38 C2A         -9.0230     2.2600     0.5070 ca         1 DND       0.156900
     39 N1A         -9.1200     3.1790    -0.4830 nb         1 DND      -0.321000
     40 C6A         -7.9890     3.4380    -1.1560 ca         1 DND       0.437900
     41 C5A         -6.7760     2.7880    -0.8340 ca         1 DND      -0.090600
     42 N7A         -5.5160     2.9350    -1.4030 nc         1 DND      -0.586100
     43 C8A         -4.7780     2.0690    -0.6790 cd         1 DND       0.447700
     44 N6A         -8.0860     4.3650    -2.1460 nv         1 DND      -1.077900
     45 H2           4.4510    -1.8580    -0.1750 h1         1 DND       0.014700
     46 H3           4.4150    -2.7670    -1.6860 h1         1 DND       0.014700
     47 H4           2.1880    -1.1910    -2.0780 h1         1 DND       0.109700
     48 H5           4.4550    -1.3470    -3.5360 h1         1 DND       0.058700
     49 H6           4.0760     1.1410    -3.9840 ho         1 DND       0.507000
     50 H7           5.9350    -0.5170    -1.7880 h1         1 DND       0.073700
     51 H8           6.6520     0.6500    -3.5180 ho         1 DND       0.516000
     52 H9           4.2590     1.9690    -1.2690 h2         1 DND       0.096700
     53 H10          3.5090     0.3440     1.4820 h4         1 DND       0.256000
     54 H11          4.7610     0.3240     3.6380 ha         1 DND       0.179000
     55 H12          7.1480     1.0050     3.7060 ha         1 DND       0.154000
     56 H13          6.9660     1.7410    -0.5680 h4         1 DND       0.178000
     57 H16         -2.4440    -0.6420    -1.3690 h1         1 DND       0.029700
     58 H17         -1.7380    -2.0680    -0.5980 h1         1 DND       0.029700
     59 H18         -2.9680    -1.6890     1.4570 h1         1 DND       0.119700
     60 H19         -4.7880    -1.1430    -0.9770 h1         1 DND       0.045700
     61 H20         -5.2900    -3.2620    -0.8070 ho         1 DND       0.495000
     62 H21         -6.6190    -1.0330     0.6720 h1         1 DND       0.054700
     63 H22         -5.2730    -2.7650     1.9270 ho         1 DND       0.520000
     64 H23         -5.2540     0.7700     2.2550 h2         1 DND       0.109700
     65 H24         -9.9340     2.0390     1.0610 h5         1 DND       0.031100
     66 H25         -3.7170     1.8900    -0.8150 h5         1 DND       0.109800
     67 H26         -8.8820     4.9960    -2.1300 hn         1 DND       0.498500
     68 H27         -7.2140     4.7360    -2.5170 hn         1 DND       0.498500
@<TRIPOS>BOND
     1     1     2 1   
     2     1     3 1   
     3     1     4 1   
     4     1     5 1   
     5     4    23 1   
     6     5     6 1   
     7     6     7 1   
     8     6    45 1   
     9     6    46 1   
    10     7     8 1   
    11     7     9 1   
    12     7    47 1   
    13     8    13 1   
    14     9    10 1   
    15     9    11 1   
    16     9    48 1   
    17    10    49 1   
    18    11    12 1   
    19    11    13 1   
    20    11    50 1   
    21    12    51 1   
    22    13    14 1   
    23    13    52 1   
    24    14    15 1   
    25    14    19 2   
    26    15    16 ar  
    27    15    53 1   
    28    16    17 ar  
    29    16    54 1   
    30    17    18 ar  
    31    17    55 1   
    32    18    19 ar  
    33    18    20 1   
    34    19    56 1   
    35    20    21 1   
    36    20    22 1   
    37    23    24 1   
    38    23    25 1   
    39    23    26 1   
    40    26    27 1   
    41    27    28 1   
    42    27    57 1   
    43    27    58 1   
    44    28    29 1   
    45    28    30 1   
    46    28    59 1   
    47    29    34 1   
    48    30    31 1   
    49    30    32 1   
    50    30    60 1   
    51    31    61 1   
    52    32    33 1   
    53    32    34 1   
    54    32    62 1   
    55    33    63 1   
    56    34    35 1   
    57    34    64 1   
    58    35    36 1   
    59    35    43 1   
    60    36    37 ar  
    61    36    41 ar  
    62    37    38 ar  
    63    38    39 ar  
    64    38    65 1   
    65    39    40 ar  
    66    40    41 ar  
    67    40    44 1   
    68    41    42 1   
    69    42    43 2   
    70    43    66 1   
    71    44    67 1   
    72    44    68 1   
@<TRIPOS>SUBSTRUCTURE
     1 DND         1 TEMP              0 ****  ****    0 ROOT
