@<TRIPOS>MOLECULE
DND
   68    72     1     0     0
SMALL
bcc


@<TRIPOS>ATOM
      1 PN           1.5700    -0.9900    -0.1190 p5         1 DND       1.471800
      2 O11          0.7770    -1.7790    -1.1070 o          1 DND      -0.855500
      3 O12          2.7480    -1.6160     0.5690 o          1 DND      -0.855500
      4 O3P          0.6110    -0.2460     0.9820 os         1 DND      -0.680800
      5 O5D          2.0480     0.4360    -0.7980 os         1 DND      -0.535200
      6 C5D          2.9630     0.3750    -1.8650 c3         1 DND       0.195400
      7 C4D          3.8880     1.5730    -1.7800 c5         1 DND       0.129100
      8 O4D          4.5910     1.5870    -0.5230 os         1 DND      -0.358600
      9 C3D          4.9680     1.5660    -2.8510 c5         1 DND       0.083100
     10 O3D          5.3430     2.8910    -3.1170 oh         1 DND      -0.586800
     11 C2D          6.0930     0.8100    -2.1360 c5         1 DND       0.048100
     12 O2D          7.3780     1.0710    -2.6060 oh         1 DND      -0.586800
     13 C1D          5.9350     1.3450    -0.7120 c5         1 DND       0.230800
     14 N1N          6.4280     0.3630     0.2860 na         1 DND      -0.002100
     15 C6N          5.6120    -0.5690     0.7990 ca         1 DND      -0.012300
     16 C5N          6.1210    -1.5160     1.6590 ca         1 DND      -0.163000
     17 C4N          7.4690    -1.5000     1.9800 ca         1 DND      -0.020000
     18 C3N          8.2990    -0.5250     1.4380 ca         1 DND      -0.184600
     19 C2N          7.7340     0.4000     0.5890 ca         1 DND      -0.044300
     20 C7N          9.7930    -0.4530     1.7590 c          1 DND       0.939200
     21 O7N         10.4180     0.4610     1.2000 o          1 DND      -0.800800
     22 O8N         10.2120    -1.3180     2.5420 o          1 DND      -0.800800
     23 PA          -0.6150    -0.9530     1.8080 p5         1 DND       1.449800
     24 O13         -0.3710    -2.4180     1.9780 o          1 DND      -0.844000
     25 O14         -0.8800    -0.0810     2.9950 o          1 DND      -0.844000
     26 O5B         -1.7810    -0.7100     0.6710 os         1 DND      -0.543200
     27 C5B         -3.0170    -1.3690     0.8130 c3         1 DND       0.209400
     28 C4B         -3.9820    -0.6290     1.7150 c5         1 DND       0.096100
     29 O4B         -4.2260     0.6890     1.2170 os         1 DND      -0.356600
     30 C3B         -5.3560    -1.2870     1.7780 c5         1 DND       0.065100
     31 O3B         -5.3780    -2.2760     2.7690 oh         1 DND      -0.570800
     32 C2B         -6.2660    -0.0900     2.0760 c5         1 DND       0.072100
     33 O2B         -6.1850     0.2830     3.4230 oh         1 DND      -0.580800
     34 C1B         -5.5820     1.0020     1.2570 c5         1 DND       0.263800
     35 N9A         -6.1020     1.0490    -0.1080 na         1 DND      -0.269000
     36 C4A         -7.3410     1.4950    -0.4620 ca         1 DND       0.431800
     37 N3A         -8.3160     1.9320     0.3350 nb         1 DND      -0.733000
     38 C2A         -9.3840     2.2910    -0.3560 ca         1 DND       0.682900
     39 N1A         -9.5670     2.2610    -1.6730 nb         1 DND      -0.847000
     40 C6A         -8.5770     1.8220    -2.4590 ca         1 DND       0.766200
     41 C5A         -7.3810     1.4080    -1.8450 ca         1 DND      -0.221200
     42 N7A         -6.1950     0.9300    -2.3350 nc         1 DND      -0.586100
     43 C8A         -5.4630     0.7340    -1.2760 cd         1 DND       0.447700
     44 N6A         -8.7590     1.7850    -3.7800 nv         1 DND      -0.967500
     45 H2           3.5470    -0.5540    -1.8580 h1         1 DND       0.014700
     46 H3           2.4410     0.4120    -2.8270 h1         1 DND       0.014700
     47 H4           3.2920     2.4880    -1.8320 h1         1 DND       0.109700
     48 H5           4.6420     1.0410    -3.7580 h1         1 DND       0.058700
     49 H6           6.1860     2.8780    -3.5840 ho         1 DND       0.408000
     50 H7           5.8670    -0.2640    -2.1490 h1         1 DND       0.073700
     51 H8           7.6060     0.4200    -3.2770 ho         1 DND       0.417000
     52 H9           6.5370     2.2470    -0.5570 h2         1 DND       0.096700
     53 H10          4.5620    -0.5630     0.5340 h4         1 DND       0.274000
     54 H11          5.4490    -2.2560     2.0680 ha         1 DND       0.197000
     55 H12          7.8810    -2.2380     2.6540 ha         1 DND       0.172000
     56 H13          8.3190     1.1930     0.1460 h4         1 DND       0.196000
     57 H16         -3.4500    -1.4710    -0.1870 h1         1 DND       0.029700
     58 H17         -2.8940    -2.3840     1.2080 h1         1 DND       0.029700
     59 H18         -3.5600    -0.5520     2.7230 h1         1 DND       0.119700
     60 H19         -5.6200    -1.6980     0.7940 h1         1 DND       0.045700
     61 H20         -6.1020    -2.8830     2.5880 ho         1 DND       0.396000
     62 H21         -7.3020    -0.2600     1.7600 h1         1 DND       0.054700
     63 H22         -6.1780    -0.5230     3.9540 ho         1 DND       0.421000
     64 H23         -5.7350     1.9910     1.6960 h2         1 DND       0.109700
     65 H24        -10.2250     2.6610     0.2220 h5         1 DND       0.031100
     66 H25         -4.4460     0.3760    -1.2920 h5         1 DND       0.109800
     67 H26         -9.6090     2.1380    -4.1840 hn         1 DND       0.443300
     68 H27         -8.0150     1.5140    -4.3990 hn         1 DND       0.443300
@<TRIPOS>BOND
     1     1     2 1   
     2     1     3 1   
     3     1     4 1   
     4     1     5 1   
     5     4    23 1   
     6     5     6 1   
     7     6     7 1   
     8     6    45 1   
     9     6    46 1   
    10     7     8 1   
    11     7     9 1   
    12     7    47 1   
    13     8    13 1   
    14     9    10 1   
    15     9    11 1   
    16     9    48 1   
    17    10    49 1   
    18    11    12 1   
    19    11    13 1   
    20    11    50 1   
    21    12    51 1   
    22    13    14 1   
    23    13    52 1   
    24    14    15 1   
    25    14    19 2   
    26    15    16 ar  
    27    15    53 1   
    28    16    17 ar  
    29    16    54 1   
    30    17    18 ar  
    31    17    55 1   
    32    18    19 ar  
    33    18    20 1   
    34    19    56 1   
    35    20    21 1   
    36    20    22 1   
    37    23    24 1   
    38    23    25 1   
    39    23    26 1   
    40    26    27 1   
    41    27    28 1   
    42    27    57 1   
    43    27    58 1   
    44    28    29 1   
    45    28    30 1   
    46    28    59 1   
    47    29    34 1   
    48    30    31 1   
    49    30    32 1   
    50    30    60 1   
    51    31    61 1   
    52    32    33 1   
    53    32    34 1   
    54    32    62 1   
    55    33    63 1   
    56    34    35 1   
    57    34    64 1   
    58    35    36 1   
    59    35    43 1   
    60    36    37 ar  
    61    36    41 ar  
    62    37    38 ar  
    63    38    39 ar  
    64    38    65 1   
    65    39    40 ar  
    66    40    41 ar  
    67    40    44 1   
    68    41    42 1   
    69    42    43 2   
    70    43    66 1   
    71    44    67 1   
    72    44    68 1   
@<TRIPOS>SUBSTRUCTURE
     1 DND         1 TEMP              0 ****  ****    0 ROOT
