@<TRIPOS>MOLECULE
DNF
   17    17     1     0     0
SMALL
abcg2


@<TRIPOS>ATOM
      1 C1           1.1500     1.3280     0.1030 ca         1 DNF       0.279100
      2 O1           2.3080     1.9480     0.1590 oh         1 DNF      -0.501100
      3 C2           0.9760    -0.0720     0.0780 ca         1 DNF      -0.317200
      4 N2           2.1100    -0.9620     0.1130 no         1 DNF       0.709200
      5 O21          3.2230    -0.4630     0.1590 o          1 DNF      -0.397000
      6 O22          1.9230    -2.1490     0.0970 o          1 DNF      -0.397000
      7 C3          -0.2890    -0.6420     0.0180 ca         1 DNF       0.061000
      8 C4          -1.3900     0.1800    -0.0180 ca         1 DNF      -0.242200
      9 N4          -2.7110    -0.4100    -0.0810 no         1 DNF       0.705200
     10 O41         -2.7960    -1.6150    -0.1110 o          1 DNF      -0.390500
     11 O42         -3.6590     0.3380    -0.1010 o          1 DNF      -0.390500
     12 C5          -1.2530     1.5700     0.0050 ca         1 DNF       0.035000
     13 C6          -0.0020     2.1260     0.0650 ca         1 DNF      -0.187000
     14 HO1          3.0310     1.2920     0.1780 ho         1 DNF       0.529000
     15 H3          -0.3960    -1.7160    -0.0000 ha         1 DNF       0.185000
     16 H5          -2.1180     2.2160    -0.0230 ha         1 DNF       0.163000
     17 H6           0.1150     3.2010     0.0820 ha         1 DNF       0.156000
@<TRIPOS>BOND
     1     1     2 1   
     2     1     3 ar  
     3     1    13 ar  
     4     2    14 1   
     5     3     4 1   
     6     3     7 ar  
     7     4     5 1   
     8     4     6 1   
     9     7     8 ar  
    10     7    15 1   
    11     8     9 1   
    12     8    12 ar  
    13     9    10 1   
    14     9    11 1   
    15    12    13 ar  
    16    12    16 1   
    17    13    17 1   
@<TRIPOS>SUBSTRUCTURE
     1 DNF         1 TEMP              0 ****  ****    0 ROOT
