@<TRIPOS>MOLECULE
DNF
   17    17     1     0     0
SMALL
No Charge or Current Charge


@<TRIPOS>ATOM
      1 C1           1.1450     1.3430     0.1020 ca         1 DNF       0.279100
      2 O1           2.3520     1.9700     0.1600 oh         1 DNF      -0.501100
      3 C2           1.0170    -0.0670     0.0790 ca         1 DNF      -0.317200
      4 N2           2.2020    -0.9840     0.1160 no         1 DNF       0.709200
      5 O21          3.3330    -0.4830     0.1690 o          1 DNF      -0.397000
      6 O22          2.0000    -2.2030     0.0920 o          1 DNF      -0.397000
      7 C3          -0.2810    -0.6350     0.0170 ca         1 DNF       0.061000
      8 C4          -1.4300     0.1880    -0.0200 ca         1 DNF      -0.242200
      9 N4          -2.7950    -0.4210    -0.0840 no         1 DNF       0.705200
     10 O41         -2.8850    -1.6550    -0.1030 o          1 DNF      -0.390500
     11 O42         -3.7720     0.3380    -0.1150 o          1 DNF      -0.390500
     12 C5          -1.2790     1.5900     0.0050 ca         1 DNF       0.035000
     13 C6           0.0030     2.1520     0.0650 ca         1 DNF      -0.187000
     14 HO1          3.0440     1.2700     0.1800 ho         1 DNF       0.529000
     15 H3          -0.4020    -1.7190    -0.0010 ha         1 DNF       0.185000
     16 H5          -2.1450     2.2510    -0.0230 ha         1 DNF       0.163000
     17 H6           0.1140     3.2330     0.0840 ha         1 DNF       0.156000
@<TRIPOS>BOND
     1     1     2 1   
     2     1     3 ar  
     3     1    13 ar  
     4     2    14 1   
     5     3     4 1   
     6     3     7 ar  
     7     4     5 1   
     8     4     6 1   
     9     7     8 ar  
    10     7    15 1   
    11     8     9 1   
    12     8    12 ar  
    13     9    10 1   
    14     9    11 1   
    15    12    13 ar  
    16    12    16 1   
    17    13    17 1   
@<TRIPOS>SUBSTRUCTURE
     1 DNF         1 TEMP              0 ****  ****    0 ROOT
