@<TRIPOS>MOLECULE
DNG
   23    22     1     0     0
SMALL
No Charge or Current Charge


@<TRIPOS>ATOM
      1 C           35.1050     8.8770     4.3070 c          1 DNG       0.716000
      2 N           36.2000     8.1340     6.4290 ns         1 DNG      -0.461900
      3 O           34.0670     8.5220     3.7650 o          1 DNG      -0.723500
      4 C1          36.1550     7.2510     7.4880 c          1 DNG       0.602900
      5 O1          35.9040     6.0580     7.3640 o          1 DNG      -0.649100
      6 CA          35.9810     7.7870     5.0010 c3         1 DNG      -0.051300
      7 CB          37.3150     7.5680     4.2400 c3         1 DNG      -0.072400
      8 CD          39.4110     6.0660     3.9030 c3         1 DNG      -0.072400
      9 CE          40.4780     7.1810     3.9160 c3         1 DNG      -0.085100
     10 CG          38.1550     6.3720     4.7520 c3         1 DNG      -0.076400
     11 OXT         35.4430    10.0490     4.4040 o          1 DNG      -0.723500
     12 H           36.3960     9.1020     6.6590 hn         1 DNG       0.292500
     13 HC1         36.3630     7.7430     8.4560 h5         1 DNG      -0.036800
     14 HA          35.4060     6.8530     4.9570 h1         1 DNG       0.063700
     15 HB          37.0850     7.4040     3.1790 hc         1 DNG       0.045200
     16 HBA         37.9100     8.4880     4.2940 hc         1 DNG       0.045200
     17 HD          39.8700     5.1440     4.2800 hc         1 DNG       0.025200
     18 HDA         39.1120     5.8650     2.8670 hc         1 DNG       0.025200
     19 HE          40.7800     7.4170     4.9440 hc         1 DNG       0.024033
     20 HEA         40.1000     8.0960     3.4450 hc         1 DNG       0.024033
     21 HEB         41.3680     6.8600     3.3630 hc         1 DNG       0.024033
     22 HG          37.5220     5.4770     4.7670 hc         1 DNG       0.032200
     23 HGA         38.4640     6.5560     5.7880 hc         1 DNG       0.032200
@<TRIPOS>BOND
     1     1     3 1   
     2     1     6 1   
     3     1    11 1   
     4     2     4 1   
     5     2     6 1   
     6     2    12 1   
     7     4     5 2   
     8     4    13 1   
     9     6     7 1   
    10     6    14 1   
    11     7    10 1   
    12     7    15 1   
    13     7    16 1   
    14     8     9 1   
    15     8    10 1   
    16     8    17 1   
    17     8    18 1   
    18     9    19 1   
    19     9    20 1   
    20     9    21 1   
    21    10    22 1   
    22    10    23 1   
@<TRIPOS>SUBSTRUCTURE
     1 DNG         1 TEMP              0 ****  ****    0 ROOT
