@<TRIPOS>MOLECULE
DNG
   23    22     1     0     0
SMALL
bcc


@<TRIPOS>ATOM
      1 C           35.1150     8.7490     4.4640 c          1 DNG       0.926600
      2 N           36.4480     8.0130     6.4410 ns         1 DNG      -0.528900
      3 O           34.8590     8.5880     3.2550 o          1 DNG      -0.828800
      4 C1          35.8330     7.5470     7.5280 c          1 DNG       0.669900
      5 O1          34.9580     6.6950     7.5530 o          1 DNG      -0.649100
      6 CA          36.0850     7.6960     5.0780 c3         1 DNG      -0.051300
      7 CB          37.3450     7.4970     4.2350 c3         1 DNG      -0.072400
      8 CD          39.4310     6.0790     3.8240 c3         1 DNG      -0.072400
      9 CE          40.4520     7.2090     3.8040 c3         1 DNG      -0.085100
     10 CG          38.2250     6.3510     4.7190 c3         1 DNG      -0.076400
     11 OXT         34.6710     9.6280     5.2220 o          1 DNG      -0.828800
     12 H           37.0820     8.7860     6.5770 hn         1 DNG       0.292500
     13 HC1         36.2220     8.0120     8.4480 h5         1 DNG      -0.036800
     14 HA          35.5460     6.7440     5.1060 h1         1 DNG       0.063700
     15 HB          37.0360     7.3050     3.2070 hc         1 DNG       0.045200
     16 HBA         37.9150     8.4330     4.2160 hc         1 DNG       0.045200
     17 HD          39.9220     5.1640     4.1660 hc         1 DNG       0.025200
     18 HDA         39.0880     5.8750     2.8050 hc         1 DNG       0.025200
     19 HE          40.8040     7.4340     4.8130 hc         1 DNG       0.024033
     20 HEA         40.0370     8.1290     3.3890 hc         1 DNG       0.024033
     21 HEB         41.3230     6.9440     3.2030 hc         1 DNG       0.024033
     22 HG          37.6140     5.4440     4.7810 hc         1 DNG       0.032200
     23 HGA         38.5760     6.5500     5.7360 hc         1 DNG       0.032200
@<TRIPOS>BOND
     1     1     3 1   
     2     1     6 1   
     3     1    11 1   
     4     2     4 1   
     5     2     6 1   
     6     2    12 1   
     7     4     5 2   
     8     4    13 1   
     9     6     7 1   
    10     6    14 1   
    11     7    10 1   
    12     7    15 1   
    13     7    16 1   
    14     8     9 1   
    15     8    10 1   
    16     8    17 1   
    17     8    18 1   
    18     9    19 1   
    19     9    20 1   
    20     9    21 1   
    21    10    22 1   
    22    10    23 1   
@<TRIPOS>SUBSTRUCTURE
     1 DNG         1 TEMP              0 ****  ****    0 ROOT
