@<TRIPOS>MOLECULE
DNH
   22    22     1     0     0
SMALL
abcg2


@<TRIPOS>ATOM
      1 C7           0.6830    -0.2760    -1.9390 c6         1 DNH      -0.069400
      2 C8          -0.7230     0.3110    -1.9280 c6         1 DNH      -0.069400
      3 C3           0.6960    -0.3070     0.6080 c6         1 DNH       0.159500
      4 C4          -0.7100     0.2980     0.6200 c6         1 DNH       0.159500
      5 C5           1.4360     0.1030    -0.6700 c6         1 DNH      -0.114400
      6 C6          -1.4630    -0.0900    -0.6570 c6         1 DNH      -0.114400
      7 N1           1.4180     0.0340     1.8270 n8         1 DNH      -0.965200
      8 N2          -1.4210    -0.0650     1.8390 n8         1 DNH      -0.965200
      9 H71          1.2330     0.0650    -2.8200 hc         1 DNH       0.040950
     10 H72          0.6210    -1.3670    -2.0160 hc         1 DNH       0.040950
     11 H81         -0.6620     1.4030    -1.9880 hc         1 DNH       0.040950
     12 H82         -1.2820    -0.0160    -2.8080 hc         1 DNH       0.040950
     13 H3           0.5810    -1.4000     0.5930 h1         1 DNH       0.056700
     14 H4          -0.5950     1.3910     0.6240 h1         1 DNH       0.056700
     15 H51          1.5920     1.1890    -0.6490 hc         1 DNH       0.038200
     16 H52          2.4310    -0.3520    -0.6680 hc         1 DNH       0.038200
     17 H61         -2.4580     0.3650    -0.6360 hc         1 DNH       0.038200
     18 H62         -1.6180    -1.1760    -0.6530 hc         1 DNH       0.038200
     19 H11          2.3790    -0.2770     1.7340 hn         1 DNH       0.387000
     20 H12          1.4720     1.0440     1.9040 hn         1 DNH       0.387000
     21 H21         -2.3810     0.2520     1.7620 hn         1 DNH       0.387000
     22 H22         -1.4800    -1.0760     1.8970 hn         1 DNH       0.387000
@<TRIPOS>BOND
     1     1     2 1   
     2     1     5 1   
     3     1     9 1   
     4     1    10 1   
     5     2     6 1   
     6     2    11 1   
     7     2    12 1   
     8     3     4 1   
     9     3     5 1   
    10     3     7 1   
    11     3    13 1   
    12     4     6 1   
    13     4     8 1   
    14     4    14 1   
    15     5    15 1   
    16     5    16 1   
    17     6    17 1   
    18     6    18 1   
    19     7    19 1   
    20     7    20 1   
    21     8    21 1   
    22     8    22 1   
@<TRIPOS>SUBSTRUCTURE
     1 DNH         1 TEMP              0 ****  ****    0 ROOT
