@<TRIPOS>MOLECULE
DNH
   22    22     1     0     0
SMALL
No Charge or Current Charge


@<TRIPOS>ATOM
      1 C7           0.6660    -0.2570    -1.9500 c6         1 DNH      -0.069400
      2 C8          -0.7190     0.4370    -1.9690 c6         1 DNH      -0.069400
      3 C3           0.5930    -0.3590     0.6060 c6         1 DNH       0.159500
      4 C4          -0.8130     0.3420     0.5850 c6         1 DNH       0.159500
      5 C5           1.4290     0.0470    -0.6360 c6         1 DNH      -0.114400
      6 C6          -1.5660     0.0360    -0.7360 c6         1 DNH      -0.114400
      7 N1           1.3500    -0.0240     1.8390 n8         1 DNH      -0.965200
      8 N2          -1.6320    -0.0880     1.7410 n8         1 DNH      -0.965200
      9 H71          1.2610     0.0760    -2.8110 hc         1 DNH       0.040950
     10 H72          0.5370    -1.3430    -2.0610 hc         1 DNH       0.040950
     11 H81         -0.5860     1.5280    -1.9880 hc         1 DNH       0.040950
     12 H82         -1.2550     0.1730    -2.8910 hc         1 DNH       0.040950
     13 H3           0.4480    -1.4510     0.5890 h1         1 DNH       0.056700
     14 H4          -0.6640     1.4300     0.6680 h1         1 DNH       0.056700
     15 H51          1.6690     1.1190    -0.5950 hc         1 DNH       0.038200
     16 H52          2.3870    -0.4910    -0.6380 hc         1 DNH       0.038200
     17 H61         -2.5230     0.5760    -0.7580 hc         1 DNH       0.038200
     18 H62         -1.8080    -1.0350    -0.7930 hc         1 DNH       0.038200
     19 H11          2.2760    -0.4610     1.7820 hn         1 DNH       0.387000
     20 H12          1.5580     0.9800     1.8320 hn         1 DNH       0.387000
     21 H21         -1.8670    -1.0780     1.6160 hn         1 DNH       0.387000
     22 H22         -0.9940    -0.1050     2.5470 hn         1 DNH       0.387000
@<TRIPOS>BOND
     1     1     2 1   
     2     1     5 1   
     3     1     9 1   
     4     1    10 1   
     5     2     6 1   
     6     2    11 1   
     7     2    12 1   
     8     3     4 1   
     9     3     5 1   
    10     3     7 1   
    11     3    13 1   
    12     4     6 1   
    13     4     8 1   
    14     4    14 1   
    15     5    15 1   
    16     5    16 1   
    17     6    17 1   
    18     6    18 1   
    19     7    19 1   
    20     7    20 1   
    21     8    21 1   
    22     8    22 1   
@<TRIPOS>SUBSTRUCTURE
     1 DNH         1 TEMP              0 ****  ****    0 ROOT
