@<TRIPOS>MOLECULE
DNI
   37    39     1     0     0
SMALL
No Charge or Current Charge


@<TRIPOS>ATOM
      1 C12         40.0680    -8.5000    -3.2630 cc         1 DNI       0.606500
      2 C15         38.7770    -7.5900    -4.5900 cd         1 DNI       0.553500
      3 C17         37.6130    -7.1010    -5.3600 ca         1 DNI      -0.174500
      4 C18         37.7870    -6.2250    -6.4520 ca         1 DNI       0.003000
      5 C19         36.6790    -5.7490    -7.2000 ca         1 DNI      -0.288200
      6 C20         35.3720    -6.1700    -6.8310 ca         1 DNI       0.242100
      7 C22         36.3090    -7.5080    -5.0090 ca         1 DNI      -0.095000
      8 C02         41.2920   -10.5060    -2.3710 ca         1 DNI      -0.039300
      9 C03         40.5080    -9.3430    -2.1490 ca         1 DNI      -0.095500
     10 C04         40.1750    -8.9780    -0.8230 ca         1 DNI       0.014000
     11 C06         41.4360   -10.8520     0.0610 ca         1 DNI      -0.088600
     12 C07         41.7730   -11.2360    -1.2550 ca         1 DNI       0.119000
     13 C09         42.0040   -11.6200     1.2660 c3         1 DNI      -0.042800
     14 C21         35.1960    -7.0500    -5.7330 ca         1 DNI       0.083100
     15 N05         40.5610    -9.7740     0.2630 na         1 DNI       0.457300
     16 N13         40.9060    -7.8160    -4.0220 nd         1 DNI      -0.338300
     17 N16         38.7420    -8.4090    -3.5620 nc         1 DNI      -0.703000
     18 N25         36.9350    -4.8180    -8.3510 no         1 DNI       0.707200
     19 O10         40.0460    -9.5850     1.3790 o          1 DNI      -0.483000
     20 O14         40.0330    -7.1850    -4.9350 os         1 DNI      -0.077700
     21 O23         33.9400    -7.4690    -5.3600 oh         1 DNI      -0.502100
     22 O24         34.2620    -5.7450    -7.5130 oh         1 DNI      -0.484100
     23 O26         38.1050    -4.5060    -8.6020 o          1 DNI      -0.400000
     24 O27         35.9670    -4.4020    -9.0010 o          1 DNI      -0.400000
     25 Cl1         42.8290   -12.6370    -1.5030 cl         1 DNI      -0.154000
     26 Cl2         39.2980    -7.4690    -0.5050 cl         1 DNI      -0.084000
     27 H1          38.7970    -5.9120    -6.7210 ha         1 DNI       0.169000
     28 H2          36.1640    -8.1830    -4.1680 ha         1 DNI       0.152000
     29 H3          42.6490   -10.6220    -4.0760 hc         1 DNI       0.060033
     30 H4          41.6230   -12.0540    -3.8890 hc         1 DNI       0.060033
     31 H5          40.9420   -10.5900    -4.5460 hc         1 DNI       0.060033
     32 H6          41.8230   -11.1150     2.2230 hc         1 DNI       0.071367
     33 H7          41.5610   -12.6200     1.3360 hc         1 DNI       0.071367
     34 H8          43.0910   -11.7400     1.1850 hc         1 DNI       0.071367
     35 H10         34.0130    -8.0690    -4.5870 ho         1 DNI       0.476000
     36 H11         34.5680    -5.1470    -8.2330 ho         1 DNI       0.521000
     37 C01         41.6450   -10.9630    -3.7930 c3         1 DNI      -0.047800
@<TRIPOS>BOND
     1     1     9 1   
     2     1    16 2   
     3     1    17 1   
     4     2     3 1   
     5     2    17 2   
     6     2    20 1   
     7     3     4 ar  
     8     3     7 ar  
     9     4     5 ar  
    10     4    27 1   
    11     5     6 ar  
    12     5    18 1   
    13     6    14 ar  
    14     6    22 1   
    15     7    14 ar  
    16     7    28 1   
    17     8     9 ar  
    18     8    12 ar  
    19     8    37 1   
    20     9    10 ar  
    21    10    15 1   
    22    10    26 1   
    23    11    12 ar  
    24    11    13 1   
    25    11    15 2   
    26    12    25 1   
    27    13    32 1   
    28    13    33 1   
    29    13    34 1   
    30    14    21 1   
    31    15    19 1   
    32    16    20 1   
    33    18    23 1   
    34    18    24 1   
    35    21    35 1   
    36    22    36 1   
    37    29    37 1   
    38    30    37 1   
    39    31    37 1   
@<TRIPOS>SUBSTRUCTURE
     1 DNI         1 TEMP              0 ****  ****    0 ROOT
