@<TRIPOS>MOLECULE
DNI
   37    39     1     0     0
SMALL
bcc


@<TRIPOS>ATOM
      1 C12         40.1050    -8.4930    -3.2860 cc         1 DNI       0.606500
      2 C15         38.8090    -7.5980    -4.6240 cd         1 DNI       0.597900
      3 C17         37.6810    -7.1340    -5.4090 ca         1 DNI      -0.174500
      4 C18         37.8120    -6.1140    -6.3250 ca         1 DNI      -0.015000
      5 C19         36.6870    -5.6930    -7.0320 ca         1 DNI      -0.288200
      6 C20         35.4260    -6.2790    -6.8430 ca         1 DNI       0.242100
      7 C22         36.4310    -7.7380    -5.1980 ca         1 DNI      -0.113000
      8 C02         41.2600   -10.5350    -2.4200 ca         1 DNI      -0.039300
      9 C03         40.6060    -9.3320    -2.1850 ca         1 DNI      -0.095500
     10 C04         40.3850    -8.8940    -0.8930 ca         1 DNI      -0.026900
     11 C06         41.4410   -10.7930     0.0060 ca         1 DNI      -0.088600
     12 C07         41.6650   -11.2400    -1.2850 ca         1 DNI       0.027400
     13 C09         41.8460   -11.4850     1.2560 c3         1 DNI      -0.042800
     14 C21         35.3240    -7.3290    -5.8970 ca         1 DNI       0.083100
     15 N05         40.7870    -9.6040     0.1890 na         1 DNI       0.216600
     16 N13         40.8740    -7.7000    -3.9630 nd         1 DNI      -0.338300
     17 N16         38.8010    -8.4690    -3.6660 nc         1 DNI      -0.703000
     18 N25         36.8520    -4.6120    -7.9710 no         1 DNI       0.327200
     19 O10         40.5660    -9.1760     1.3560 o          1 DNI      -0.293000
     20 O14         40.0210    -7.1100    -4.8510 os         1 DNI      -0.122100
     21 O23         34.1020    -7.8550    -5.7570 oh         1 DNI      -0.463100
     22 O24         34.3100    -5.9490    -7.4610 oh         1 DNI      -0.445100
     23 O26         37.9390    -4.1160    -8.1040 o          1 DNI      -0.210000
     24 O27         35.8720    -4.2400    -8.5990 o          1 DNI      -0.210000
     25 CL1         42.4850   -12.7390    -1.5110 cl         1 DNI      -0.062400
     26 CL2         39.5910    -7.4280    -0.5690 cl         1 DNI       0.007600
     27 H1          38.7630    -5.6330    -6.4990 ha         1 DNI       0.187000
     28 H2          36.3380    -8.5400    -4.4740 ha         1 DNI       0.170000
     29 H3          42.5840   -11.1420    -3.9860 hc         1 DNI       0.060033
     30 H4          41.0860   -12.0570    -3.9140 hc         1 DNI       0.060033
     31 H5          41.0860   -10.4230    -4.5640 hc         1 DNI       0.060033
     32 H6          42.4930   -10.8420     1.8540 hc         1 DNI       0.071367
     33 H7          40.9730   -11.7200     1.8650 hc         1 DNI       0.071367
     34 H8          42.3770   -12.4060     1.0460 hc         1 DNI       0.071367
     35 H10         34.1050    -8.5570    -5.0950 ho         1 DNI       0.437000
     36 H11         34.4950    -5.2210    -8.0850 ho         1 DNI       0.482000
     37 C01         41.5130   -11.0610    -3.7960 c3         1 DNI      -0.047800
@<TRIPOS>BOND
     1     1     9 1   
     2     1    16 2   
     3     1    17 1   
     4     2     3 1   
     5     2    17 2   
     6     2    20 1   
     7     3     4 ar  
     8     3     7 ar  
     9     4     5 ar  
    10     4    27 1   
    11     5     6 ar  
    12     5    18 1   
    13     6    14 ar  
    14     6    22 1   
    15     7    14 ar  
    16     7    28 1   
    17     8     9 ar  
    18     8    12 ar  
    19     8    37 1   
    20     9    10 ar  
    21    10    15 1   
    22    10    26 1   
    23    11    12 ar  
    24    11    13 1   
    25    11    15 2   
    26    12    25 1   
    27    13    32 1   
    28    13    33 1   
    29    13    34 1   
    30    14    21 1   
    31    15    19 1   
    32    16    20 1   
    33    18    23 1   
    34    18    24 1   
    35    21    35 1   
    36    22    36 1   
    37    29    37 1   
    38    30    37 1   
    39    31    37 1   
@<TRIPOS>SUBSTRUCTURE
     1 DNI         1 TEMP              0 ****  ****    0 ROOT
