@<TRIPOS>MOLECULE
DNJ
   24    24     1     0     0
SMALL
No Charge or Current Charge


@<TRIPOS>ATOM
      1 C1           1.7900     0.2050    -0.5830 c6         1 DNJ       0.131800
      2 C2           0.7670    -0.2580    -1.6680 c6         1 DNJ       0.133300
      3 O2           1.1340     0.2190    -2.9800 oh         1 DNJ      -0.728000
      4 C3          -0.6550     0.2560    -1.2920 c6         1 DNJ       0.139300
      5 O3          -1.6170    -0.1690    -2.2770 oh         1 DNJ      -0.671000
      6 C4          -1.0570    -0.2410     0.1290 c6         1 DNJ       0.179300
      7 O4          -2.3740     0.2480     0.4460 oh         1 DNJ      -0.724000
      8 C5           0.0200     0.2220     1.1700 c6         1 DNJ       0.175500
      9 C6          -0.3090    -0.2600     2.6240 c3         1 DNJ       0.163600
     10 O6           0.6820     0.1640     3.5840 oh         1 DNJ      -0.675000
     11 N5           1.3870    -0.2430     0.7760 n7         1 DNJ      -0.874400
     12 H11          1.8670     1.3030    -0.5960 h1         1 DNJ       0.040200
     13 H12          2.7850    -0.2010    -0.8160 h1         1 DNJ       0.040200
     14 H2           0.7460    -1.3590    -1.6630 h1         1 DNJ       0.056700
     15 HO2          2.0100    -0.1790    -3.1990 ho         1 DNJ       0.510000
     16 H3          -0.6160     1.3560    -1.2690 h1         1 DNJ       0.050700
     17 HO3         -1.1370    -0.0970    -3.1350 ho         1 DNJ       0.464000
     18 H4          -1.0650    -1.3420     0.1160 h1         1 DNJ       0.053700
     19 HO4         -2.8630     0.1980    -0.4110 ho         1 DNJ       0.524000
     20 H5           0.0210     1.3220     1.1880 h1         1 DNJ       0.046700
     21 H61         -0.3820    -1.3560     2.6160 h1         1 DNJ       0.037700
     22 H62         -1.2950     0.1330     2.9070 h1         1 DNJ       0.037700
     23 HO6          0.4190    -0.2150     4.4520 ho         1 DNJ       0.448000
     24 HN5          2.0520     0.1120     1.4780 hn         1 DNJ       0.442000
@<TRIPOS>BOND
     1     1     2 1   
     2     1    11 1   
     3     1    12 1   
     4     1    13 1   
     5     2     3 1   
     6     2     4 1   
     7     2    14 1   
     8     3    15 1   
     9     4     5 1   
    10     4     6 1   
    11     4    16 1   
    12     5    17 1   
    13     6     7 1   
    14     6     8 1   
    15     6    18 1   
    16     7    19 1   
    17     8     9 1   
    18     8    11 1   
    19     8    20 1   
    20     9    10 1   
    21     9    21 1   
    22     9    22 1   
    23    10    23 1   
    24    11    24 1   
@<TRIPOS>SUBSTRUCTURE
     1 DNJ         1 TEMP              0 ****  ****    0 ROOT
