@<TRIPOS>MOLECULE
DNJ
   24    24     1     0     0
SMALL
abcg2


@<TRIPOS>ATOM
      1 C1           1.7760     0.2190    -0.5210 c6         1 DNJ       0.131800
      2 C2           0.8250    -0.2540    -1.6130 c6         1 DNJ       0.133300
      3 O2           1.1660     0.2640    -2.8800 oh         1 DNJ      -0.728000
      4 C3          -0.5830     0.2240    -1.2910 c6         1 DNJ       0.139300
      5 O3          -1.5410    -0.2840    -2.1930 oh         1 DNJ      -0.671000
      6 C4          -1.0050    -0.2100     0.1080 c6         1 DNJ       0.179300
      7 O4          -2.2530     0.3440     0.4520 oh         1 DNJ      -0.724000
      8 C5           0.0270     0.2420     1.1390 c6         1 DNJ       0.175500
      9 C6          -0.3400    -0.2480     2.5290 c3         1 DNJ       0.163600
     10 O6           0.6310     0.2250     3.4380 oh         1 DNJ      -0.675000
     11 N5           1.3170    -0.2980     0.7510 n7         1 DNJ      -0.874400
     12 H11          1.8320     1.3200    -0.5470 h1         1 DNJ       0.040200
     13 H12          2.7820    -0.1600    -0.7170 h1         1 DNJ       0.040200
     14 H2           0.8310    -1.3530    -1.6220 h1         1 DNJ       0.056700
     15 HO2          1.9390    -0.2080    -3.2050 ho         1 DNJ       0.510000
     16 H3          -0.5770     1.3270    -1.3100 h1         1 DNJ       0.050700
     17 HO3         -1.3350     0.0510    -3.0720 ho         1 DNJ       0.464000
     18 H4          -1.0450    -1.3110     0.1330 h1         1 DNJ       0.053700
     19 HO4         -2.8950     0.0710    -0.2120 ho         1 DNJ       0.524000
     20 H5           0.0300     1.3480     1.1500 h1         1 DNJ       0.046700
     21 H61         -0.3770    -1.3460     2.5170 h1         1 DNJ       0.037700
     22 H62         -1.3400     0.1130     2.7910 h1         1 DNJ       0.037700
     23 HO6          0.4480    -0.1570     4.3010 ho         1 DNJ       0.448000
     24 HN5          1.9990    -0.1000     1.4710 hn         1 DNJ       0.442000
@<TRIPOS>BOND
     1     1     2 1   
     2     1    11 1   
     3     1    12 1   
     4     1    13 1   
     5     2     3 1   
     6     2     4 1   
     7     2    14 1   
     8     3    15 1   
     9     4     5 1   
    10     4     6 1   
    11     4    16 1   
    12     5    17 1   
    13     6     7 1   
    14     6     8 1   
    15     6    18 1   
    16     7    19 1   
    17     8     9 1   
    18     8    11 1   
    19     8    20 1   
    20     9    10 1   
    21     9    21 1   
    22     9    22 1   
    23    10    23 1   
    24    11    24 1   
@<TRIPOS>SUBSTRUCTURE
     1 DNJ         1 TEMP              0 ****  ****    0 ROOT
