@<TRIPOS>MOLECULE
DNK
   51    54     1     0     0
SMALL
No Charge or Current Charge


@<TRIPOS>ATOM
      1 C10          1.3820     0.2350     1.3600 c6         1 DNK      -0.112400
      2 C11          0.0030    -0.0510     0.7240 c6         1 DNK       0.102000
      3 C13         -1.8440     1.0470    -0.5950 c          1 DNK       0.616100
      4 C15         -4.1490     1.7110     0.3970 c3         1 DNK      -0.044700
      5 C16         -5.2720     1.3240     1.3920 c3         1 DNK      -0.090600
      6 C17         -3.6840     3.1660     0.6560 c3         1 DNK      -0.090600
      7 C18         -3.4070    -0.7530     0.2350 ca         1 DNK      -0.082300
      8 C19         -4.0310    -1.1590    -0.9630 ca         1 DNK      -0.103500
      9 C20         -4.4390    -2.4920    -1.1380 ca         1 DNK      -0.110000
     10 C21         -4.2300    -3.4330    -0.1170 ca         1 DNK      -0.107000
     11 C22         -3.6130    -3.0380     1.0810 ca         1 DNK      -0.110000
     12 C23         -3.2050    -1.7040     1.2570 ca         1 DNK      -0.103500
     13 C25          0.5450     1.5460    -1.1280 c6         1 DNK       0.102000
     14 C26          1.9180     1.8270    -0.4780 c6         1 DNK      -0.112400
     15 C1           4.7140    -1.7880    -1.0810 ca         1 DNK      -0.098500
     16 C2           3.9870    -0.7820    -0.4340 ca         1 DNK       0.050600
     17 C3           4.5720     0.0630     0.4680 ca         1 DNK       0.050600
     18 C4           5.9310    -0.0340     0.7920 ca         1 DNK      -0.098500
     19 C5           6.6940    -1.0380     0.1570 ca         1 DNK      -0.112000
     20 C6           6.0870    -1.9130    -0.7770 ca         1 DNK      -0.112000
     21 O7           3.6950     0.9640     0.9790 os         1 DNK      -0.341600
     22 C8           2.4390     0.6110     0.3060 c5         1 DNK       0.395000
     23 O9           2.6660    -0.5200    -0.6060 os         1 DNK      -0.341600
     24 N12         -0.4890     1.0380    -0.1780 n          1 DNK      -0.412800
     25 C14         -2.9560     0.7010     0.4350 c3         1 DNK      -0.086400
     26 O24         -2.1270     1.3370    -1.7530 o          1 DNK      -0.608100
     27 H1           1.2850     1.0520     2.0870 hc         1 DNK       0.071450
     28 H2           1.7190    -0.6450     1.9230 hc         1 DNK       0.071450
     29 H3           0.0640    -0.9810     0.1390 h1         1 DNK       0.063950
     30 H4          -0.7030    -0.2400     1.5400 h1         1 DNK       0.063950
     31 H5          -4.5880     1.6860    -0.6080 hc         1 DNK       0.071700
     32 H6          -6.0900     2.0550     1.3560 hc         1 DNK       0.035700
     33 H7          -5.6980     0.3430     1.1500 hc         1 DNK       0.035700
     34 H8          -4.8890     1.2890     2.4190 hc         1 DNK       0.035700
     35 H9          -3.2130     3.2550     1.6430 hc         1 DNK       0.035700
     36 H10         -2.9610     3.4950    -0.0990 hc         1 DNK       0.035700
     37 H11         -4.5350     3.8560     0.6220 hc         1 DNK       0.035700
     38 H12         -4.2010    -0.4430    -1.7640 ha         1 DNK       0.118000
     39 H13         -4.9180    -2.7960    -2.0670 ha         1 DNK       0.113500
     40 H14         -4.5460    -4.4650    -0.2530 ha         1 DNK       0.113000
     41 H15         -3.4530    -3.7640     1.8750 ha         1 DNK       0.113500
     42 H16         -2.7350    -1.4140     2.1940 ha         1 DNK       0.118000
     43 H17          0.1860     2.4740    -1.5960 h1         1 DNK       0.063950
     44 H18          0.6730     0.8080    -1.9340 h1         1 DNK       0.063950
     45 H19          2.6440     2.1080    -1.2510 hc         1 DNK       0.071450
     46 H20          1.8310     2.6880     0.1980 hc         1 DNK       0.071450
     47 H21          4.2330    -2.4510    -1.7960 ha         1 DNK       0.132000
     48 H22          6.3830     0.6450     1.5110 ha         1 DNK       0.132000
     49 H23          7.7530    -1.1400     0.3860 ha         1 DNK       0.118000
     50 H24          6.6820    -2.6840    -1.2620 ha         1 DNK       0.118000
     51 H25         -2.5160     0.7780     1.4340 hc         1 DNK       0.060700
@<TRIPOS>BOND
     1     1     2 1   
     2     1    22 1   
     3     1    27 1   
     4     1    28 1   
     5     2    24 1   
     6     2    29 1   
     7     2    30 1   
     8     3    24 1   
     9     3    25 1   
    10     3    26 2   
    11     4     5 1   
    12     4     6 1   
    13     4    25 1   
    14     4    31 1   
    15     5    32 1   
    16     5    33 1   
    17     5    34 1   
    18     6    35 1   
    19     6    36 1   
    20     6    37 1   
    21     7     8 ar  
    22     7    12 ar  
    23     7    25 1   
    24     8     9 ar  
    25     8    38 1   
    26     9    10 ar  
    27     9    39 1   
    28    10    11 ar  
    29    10    40 1   
    30    11    12 ar  
    31    11    41 1   
    32    12    42 1   
    33    13    14 1   
    34    13    24 1   
    35    13    43 1   
    36    13    44 1   
    37    14    22 1   
    38    14    45 1   
    39    14    46 1   
    40    15    16 ar  
    41    15    20 ar  
    42    15    47 1   
    43    16    17 ar  
    44    16    23 1   
    45    17    18 ar  
    46    17    21 1   
    47    18    19 ar  
    48    18    48 1   
    49    19    20 ar  
    50    19    49 1   
    51    20    50 1   
    52    21    22 1   
    53    22    23 1   
    54    25    51 1   
@<TRIPOS>SUBSTRUCTURE
     1 DNK         1 TEMP              0 ****  ****    0 ROOT
