@<TRIPOS>MOLECULE
DNK
   51    54     1     0     0
SMALL
abcg2


@<TRIPOS>ATOM
      1 C10          1.2640     0.2730     0.9760 c6         1 DNK      -0.112400
      2 C11         -0.0200    -0.2990     0.3830 c6         1 DNK       0.102000
      3 C13         -1.8400     1.1170    -0.5970 c          1 DNK       0.616100
      4 C15         -3.9130     1.7210     0.7440 c3         1 DNK      -0.044700
      5 C16         -4.9360     1.1980     1.7480 c3         1 DNK      -0.090600
      6 C17         -3.3420     3.0460     1.2420 c3         1 DNK      -0.090600
      7 C18         -3.3220    -0.6870     0.1850 ca         1 DNK      -0.082300
      8 C19         -3.9600    -0.9240    -1.0320 ca         1 DNK      -0.103500
      9 C20         -4.4750    -2.1780    -1.3300 ca         1 DNK      -0.110000
     10 C21         -4.3570    -3.2180    -0.4170 ca         1 DNK      -0.107000
     11 C22         -3.7230    -2.9930     0.7970 ca         1 DNK      -0.110000
     12 C23         -3.2110    -1.7360     1.0920 ca         1 DNK      -0.103500
     13 C25          0.3300     0.9230    -1.6840 c6         1 DNK       0.102000
     14 C26          1.6170     1.5460    -1.1520 c6         1 DNK      -0.112400
     15 C1           4.8340    -1.8070    -0.5600 ca         1 DNK      -0.098500
     16 C2           4.0040    -0.7380    -0.3290 ca         1 DNK       0.050600
     17 C3           4.4130     0.3640     0.4050 ca         1 DNK       0.050600
     18 C4           5.6720     0.4500     0.9470 ca         1 DNK      -0.098500
     19 C5           6.5320    -0.6330     0.7200 ca         1 DNK      -0.112000
     20 C6           6.1230    -1.7340    -0.0160 ca         1 DNK      -0.112000
     21 O7           3.4060     1.2700     0.4560 os         1 DNK      -0.341600
     22 C8           2.2540     0.6450    -0.1150 c5         1 DNK       0.395000
     23 O9           2.7330    -0.5480    -0.7520 os         1 DNK      -0.341600
     24 N12         -0.5830     0.6150    -0.5950 n          1 DNK      -0.412800
     25 C14         -2.7900     0.6900     0.5240 c3         1 DNK      -0.086400
     26 O24         -2.2350     1.8490    -1.4950 o          1 DNK      -0.608100
     27 H1           1.0280     1.1680     1.5560 hc         1 DNK       0.071450
     28 H2           1.7100    -0.4550     1.6580 hc         1 DNK       0.071450
     29 H3           0.1760    -1.2630    -0.0960 h1         1 DNK       0.063950
     30 H4          -0.7190    -0.4890     1.1890 h1         1 DNK       0.063950
     31 H5          -4.4220     1.8920    -0.2090 hc         1 DNK       0.071700
     32 H6          -5.7100     1.9470     1.9230 hc         1 DNK       0.035700
     33 H7          -5.4290     0.2900     1.4040 hc         1 DNK       0.035700
     34 H8          -4.4660     0.9770     2.7090 hc         1 DNK       0.035700
     35 H9          -2.8630     2.9170     2.2160 hc         1 DNK       0.035700
     36 H10         -2.6060     3.4710     0.5610 hc         1 DNK       0.035700
     37 H11         -4.1360     3.7840     1.3660 hc         1 DNK       0.035700
     38 H12         -4.0610    -0.1250    -1.7560 ha         1 DNK       0.118000
     39 H13         -4.9690    -2.3420    -2.2790 ha         1 DNK       0.113500
     40 H14         -4.7580    -4.1960    -0.6510 ha         1 DNK       0.113000
     41 H15         -3.6270    -3.7950     1.5170 ha         1 DNK       0.113500
     42 H16         -2.7270    -1.5690     2.0480 ha         1 DNK       0.118000
     43 H17         -0.1510     1.6030    -2.3780 h1         1 DNK       0.063950
     44 H18          0.5550     0.0030    -2.2320 h1         1 DNK       0.063950
     45 H19          2.3120     1.7230    -1.9750 hc         1 DNK       0.071450
     46 H20          1.3930     2.5100    -0.6900 hc         1 DNK       0.071450
     47 H21          4.5120    -2.6640    -1.1370 ha         1 DNK       0.132000
     48 H22          5.9890     1.3120     1.5180 ha         1 DNK       0.132000
     49 H23          7.5310    -0.6060     1.1320 ha         1 DNK       0.118000
     50 H24          6.8080    -2.5560    -0.1750 ha         1 DNK       0.118000
     51 H25         -2.2510     0.6240     1.4730 hc         1 DNK       0.060700
@<TRIPOS>BOND
     1     1     2 1   
     2     1    22 1   
     3     1    27 1   
     4     1    28 1   
     5     2    24 1   
     6     2    29 1   
     7     2    30 1   
     8     3    24 1   
     9     3    25 1   
    10     3    26 2   
    11     4     5 1   
    12     4     6 1   
    13     4    25 1   
    14     4    31 1   
    15     5    32 1   
    16     5    33 1   
    17     5    34 1   
    18     6    35 1   
    19     6    36 1   
    20     6    37 1   
    21     7     8 ar  
    22     7    12 ar  
    23     7    25 1   
    24     8     9 ar  
    25     8    38 1   
    26     9    10 ar  
    27     9    39 1   
    28    10    11 ar  
    29    10    40 1   
    30    11    12 ar  
    31    11    41 1   
    32    12    42 1   
    33    13    14 1   
    34    13    24 1   
    35    13    43 1   
    36    13    44 1   
    37    14    22 1   
    38    14    45 1   
    39    14    46 1   
    40    15    16 ar  
    41    15    20 ar  
    42    15    47 1   
    43    16    17 ar  
    44    16    23 1   
    45    17    18 ar  
    46    17    21 1   
    47    18    19 ar  
    48    18    48 1   
    49    19    20 ar  
    50    19    49 1   
    51    20    50 1   
    52    21    22 1   
    53    22    23 1   
    54    25    51 1   
@<TRIPOS>SUBSTRUCTURE
     1 DNK         1 TEMP              0 ****  ****    0 ROOT
