@<TRIPOS>MOLECULE
DNL
   21    20     1     0     0
SMALL
No Charge or Current Charge


@<TRIPOS>ATOM
      1 CA          -2.0170     0.6110    -0.1730 c3         1 DNL      -0.204400
      2 C           -3.2930    -0.2240    -0.3160 c          1 DNL       0.573900
      3 O           -3.8460    -0.7720     0.6310 o          1 DNL      -0.514100
      4 CB          -0.7500    -0.2780    -0.1810 c3         1 DNL      -0.066400
      5 CG           0.5570     0.5360    -0.0580 c3         1 DNL      -0.075400
      6 CD           1.8240    -0.3470    -0.0650 c3         1 DNL      -0.078400
      7 CE           3.1250     0.4720     0.0570 c3         1 DNL       0.150800
      8 NZ           4.3160    -0.3970     0.0450 n8         1 DNL      -0.996200
      9 HA2         -1.9520     1.2900    -1.0310 hc         1 DNL       0.066700
     10 HA          -2.0560     1.1750     0.7670 hc         1 DNL       0.066700
     11 H           -3.6890    -0.3240    -1.3510 h4         1 DNL      -0.020800
     12 HB1         -0.7250    -0.8630    -1.1100 hc         1 DNL       0.044200
     13 HB2         -0.8070    -0.9950     0.6470 hc         1 DNL       0.044200
     14 HG1          0.5310     1.1210     0.8700 hc         1 DNL       0.039200
     15 HG2          0.6140     1.2540    -0.8870 hc         1 DNL       0.039200
     16 HD1          1.8510    -0.9300    -0.9940 hc         1 DNL       0.047200
     17 HD2          1.7670    -1.0630     0.7640 hc         1 DNL       0.047200
     18 HE1          3.1160     1.0440     0.9960 h1         1 DNL       0.026200
     19 HE2          3.1980     1.1790    -0.7810 h1         1 DNL       0.026200
     20 HZ1          5.1530     0.1810     0.1910 hn         1 DNL       0.392500
     21 HZ2          4.2950    -1.0030     0.8750 hn         1 DNL       0.392500
@<TRIPOS>BOND
     1     1     2 1   
     2     1     4 1   
     3     1     9 1   
     4     1    10 1   
     5     2     3 2   
     6     2    11 1   
     7     4     5 1   
     8     4    12 1   
     9     4    13 1   
    10     5     6 1   
    11     5    14 1   
    12     5    15 1   
    13     6     7 1   
    14     6    16 1   
    15     6    17 1   
    16     7     8 1   
    17     7    18 1   
    18     7    19 1   
    19     8    20 1   
    20     8    21 1   
@<TRIPOS>SUBSTRUCTURE
     1 DNL         1 TEMP              0 ****  ****    0 ROOT
