@<TRIPOS>MOLECULE
DNL
   21    20     1     0     0
SMALL
bcc


@<TRIPOS>ATOM
      1 CA          -1.9780     0.5870    -0.0900 c3         1 DNL      -0.204400
      2 C           -3.2210    -0.2080    -0.3310 c          1 DNL       0.573900
      3 O           -4.1780    -0.2520     0.4030 o          1 DNL      -0.514100
      4 CB          -0.7280    -0.2920    -0.1680 c3         1 DNL      -0.066400
      5 CG           0.5540     0.5180    -0.0200 c3         1 DNL      -0.075400
      6 CD           1.8070    -0.3450    -0.0780 c3         1 DNL      -0.078400
      7 CE           3.0860     0.4680     0.0550 c3         1 DNL       0.150800
      8 NZ           4.2590    -0.3930     0.0110 n8         1 DNL      -0.885800
      9 HA2         -1.9270     1.3460    -0.8800 hc         1 DNL       0.066700
     10 HA          -2.0410     1.1050     0.8690 hc         1 DNL       0.066700
     11 H           -3.2100    -0.7880    -1.2730 h4         1 DNL      -0.020800
     12 HB1         -0.7140    -0.8260    -1.1230 hc         1 DNL       0.044200
     13 HB2         -0.7710    -1.0570     0.6130 hc         1 DNL       0.044200
     14 HG1          0.5300     1.0650     0.9280 hc         1 DNL       0.039200
     15 HG2          0.5940     1.2760    -0.8090 hc         1 DNL       0.039200
     16 HD1          1.8330    -0.9020    -1.0200 hc         1 DNL       0.047200
     17 HD2          1.7690    -1.0930     0.7230 hc         1 DNL       0.047200
     18 HE1          3.0250     1.0790     0.9680 h1         1 DNL       0.026200
     19 HE2          3.1480     1.1730    -0.7790 h1         1 DNL       0.026200
     20 HZ1          5.0970     0.1730     0.0520 hn         1 DNL       0.337300
     21 HZ2          4.2790    -0.9670     0.8450 hn         1 DNL       0.337300
@<TRIPOS>BOND
     1     1     2 1   
     2     1     4 1   
     3     1     9 1   
     4     1    10 1   
     5     2     3 2   
     6     2    11 1   
     7     4     5 1   
     8     4    12 1   
     9     4    13 1   
    10     5     6 1   
    11     5    14 1   
    12     5    15 1   
    13     6     7 1   
    14     6    16 1   
    15     6    17 1   
    16     7     8 1   
    17     7    18 1   
    18     7    19 1   
    19     8    20 1   
    20     8    21 1   
@<TRIPOS>SUBSTRUCTURE
     1 DNL         1 TEMP              0 ****  ****    0 ROOT
