@<TRIPOS>MOLECULE
DNN
   32    31     1     0     0
SMALL
bcc


@<TRIPOS>ATOM
      1 C1           0.0960     0.1400    -4.7790 c          1 DNN       0.926600
      2 O1          -0.7870     1.0210    -4.7860 o          1 DNN      -0.850800
      3 O2           0.6320    -0.3730    -5.7850 o          1 DNN      -0.850800
      4 C2           0.5890    -0.3760    -3.4170 c3         1 DNN      -0.202400
      5 C3          -0.0880     0.2070    -2.1870 c3         1 DNN      -0.054400
      6 C4           0.4650    -0.3590    -0.8850 c3         1 DNN      -0.078400
      7 C5          -0.2340     0.1800     0.3560 c3         1 DNN      -0.072400
      8 C6           0.3550    -0.3530     1.6550 c3         1 DNN      -0.061400
      9 C7          -0.4320     0.0520     2.9000 c3         1 DNN       0.167500
     10 C8           0.4050    -0.1410     4.1820 c3         1 DNN       0.114500
     11 C9          -0.4270     0.0310     5.4520 c3         1 DNN      -0.134100
     12 N7          -1.7110    -0.6470     2.8940 n8         1 DNN      -0.874800
     13 N8           1.5490     0.7660     4.1340 n8         1 DNN      -0.866800
     14 H21          1.6700    -0.2010    -3.3570 hc         1 DNN       0.013700
     15 H22          0.4840    -1.4680    -3.4070 hc         1 DNN       0.013700
     16 H31         -1.1650     0.0180    -2.2330 hc         1 DNN       0.037700
     17 H32          0.0220     1.2960    -2.1840 hc         1 DNN       0.037700
     18 H41          1.5390    -0.1460    -0.8220 hc         1 DNN       0.021700
     19 H42          0.3800    -1.4520    -0.8990 hc         1 DNN       0.021700
     20 H51         -1.2990    -0.0680     0.3090 hc         1 DNN       0.040200
     21 H52         -0.1770     1.2750     0.3570 hc         1 DNN       0.040200
     22 H61          1.3870    -0.0130     1.7570 hc         1 DNN       0.042200
     23 H62          0.3980    -1.4490     1.6140 hc         1 DNN       0.042200
     24 H7          -0.6610     1.1250     2.8320 h1         1 DNN       0.054700
     25 H8           0.8040    -1.1630     4.1690 h1         1 DNN       0.057700
     26 H91          0.2140    -0.0240     6.3340 hc         1 DNN       0.032367
     27 H92         -0.9230     1.0060     5.4630 hc         1 DNN       0.032367
     28 H93         -1.1940    -0.7360     5.5660 hc         1 DNN       0.032367
     29 HN71        -1.5630    -1.6290     3.0970 hn         1 DNN       0.328800
     30 HN72        -2.3080    -0.2970     3.6320 hn         1 DNN       0.328800
     31 HN81         1.2130     1.7200     4.2160 hn         1 DNN       0.330300
     32 HN82         2.1300     0.6160     4.9500 hn         1 DNN       0.330300
@<TRIPOS>BOND
     1     1     2 1   
     2     1     3 1   
     3     1     4 1   
     4     4     5 1   
     5     4    14 1   
     6     4    15 1   
     7     5     6 1   
     8     5    16 1   
     9     5    17 1   
    10     6     7 1   
    11     6    18 1   
    12     6    19 1   
    13     7     8 1   
    14     7    20 1   
    15     7    21 1   
    16     8     9 1   
    17     8    22 1   
    18     8    23 1   
    19     9    10 1   
    20     9    12 1   
    21     9    24 1   
    22    10    11 1   
    23    10    13 1   
    24    10    25 1   
    25    11    26 1   
    26    11    27 1   
    27    11    28 1   
    28    12    29 1   
    29    12    30 1   
    30    13    31 1   
    31    13    32 1   
@<TRIPOS>SUBSTRUCTURE
     1 DNN         1 TEMP              0 ****  ****    0 ROOT
