@<TRIPOS>MOLECULE
DNN
   32    31     1     0     0
SMALL
No Charge or Current Charge


@<TRIPOS>ATOM
      1 C1           0.0290     0.1510    -4.8090 c          1 DNN       0.716000
      2 O1           0.1320     1.2920    -5.2330 o          1 DNN      -0.745500
      3 O2          -0.6730    -0.7020    -5.3300 o          1 DNN      -0.745500
      4 C2           0.7780    -0.2140    -3.5140 c3         1 DNN      -0.202400
      5 C3          -0.1090     0.0840    -2.2800 c3         1 DNN      -0.054400
      6 C4           0.5780    -0.2580    -0.9390 c3         1 DNN      -0.078400
      7 C5          -0.3080     0.0410     0.2910 c3         1 DNN      -0.072400
      8 C6           0.3830    -0.3020     1.6350 c3         1 DNN      -0.061400
      9 C7          -0.4480     0.0520     2.9030 c3         1 DNN       0.167500
     10 C8           0.3430    -0.1850     4.2460 c3         1 DNN       0.114500
     11 C9          -0.4820     0.1450     5.5120 c3         1 DNN      -0.134100
     12 N7          -1.7280    -0.6990     2.8930 n8         1 DNN      -0.985200
     13 N8           1.6020     0.5900     4.3150 n8         1 DNN      -0.977200
     14 H21          1.6720     0.4110    -3.3980 hc         1 DNN       0.013700
     15 H22          0.9850    -1.2910    -3.4810 hc         1 DNN       0.013700
     16 H31         -1.0430    -0.4860    -2.3610 hc         1 DNN       0.037700
     17 H32         -0.3840     1.1470    -2.2820 hc         1 DNN       0.037700
     18 H41          1.5120     0.3130    -0.8570 hc         1 DNN       0.021700
     19 H42          0.8510    -1.3210    -0.9350 hc         1 DNN       0.021700
     20 H51         -1.2420    -0.5270     0.2000 hc         1 DNN       0.040200
     21 H52         -0.5790     1.1040     0.2890 hc         1 DNN       0.040200
     22 H61          1.3360     0.2390     1.6680 hc         1 DNN       0.042200
     23 H62          0.6330    -1.3710     1.6510 hc         1 DNN       0.042200
     24 H7          -0.6980     1.1220     2.8520 h1         1 DNN       0.054700
     25 H8           0.6150    -1.2500     4.2920 h1         1 DNN       0.057700
     26 H91          0.1220     0.0110     6.4180 hc         1 DNN       0.032367
     27 H92         -0.8420     1.1810     5.4880 hc         1 DNN       0.032367
     28 H93         -1.3500    -0.5180     5.6020 hc         1 DNN       0.032367
     29 HN71        -1.5230    -1.7020     2.9520 hn         1 DNN       0.384000
     30 HN72        -2.2300    -0.5010     3.7640 hn         1 DNN       0.384000
     31 HN81         1.3770     1.5900     4.3560 hn         1 DNN       0.385500
     32 HN82         2.0550     0.4100     5.2180 hn         1 DNN       0.385500
@<TRIPOS>BOND
     1     1     2 1   
     2     1     3 1   
     3     1     4 1   
     4     4     5 1   
     5     4    14 1   
     6     4    15 1   
     7     5     6 1   
     8     5    16 1   
     9     5    17 1   
    10     6     7 1   
    11     6    18 1   
    12     6    19 1   
    13     7     8 1   
    14     7    20 1   
    15     7    21 1   
    16     8     9 1   
    17     8    22 1   
    18     8    23 1   
    19     9    10 1   
    20     9    12 1   
    21     9    24 1   
    22    10    11 1   
    23    10    13 1   
    24    10    25 1   
    25    11    26 1   
    26    11    27 1   
    27    11    28 1   
    28    12    29 1   
    29    12    30 1   
    30    13    31 1   
    31    13    32 1   
@<TRIPOS>SUBSTRUCTURE
     1 DNN         1 TEMP              0 ****  ****    0 ROOT
