@<TRIPOS>MOLECULE
DNO
   24    23     1     0     0
SMALL
No Charge or Current Charge


@<TRIPOS>ATOM
      1 C1           3.3090     0.5330    -0.2350 c          1 DNO       0.543900
      2 C2           2.0690    -0.3750    -0.0070 c3         1 DNO       0.020300
      3 C3           0.7480     0.4290    -0.1910 c3         1 DNO       0.119300
      4 C4          -0.5340    -0.4620    -0.1490 c3         1 DNO       0.106300
      5 C5          -1.8470     0.3620     0.0590 c3         1 DNO       0.139300
      6 C6          -3.1310    -0.5110     0.0600 c3         1 DNO       0.127600
      7 O1           4.1710     0.7090     0.6240 o          1 DNO      -0.505100
      8 O2           2.0960    -1.0170     1.3020 oh         1 DNO      -0.690000
      9 O3           0.7580     1.0730    -1.4720 oh         1 DNO      -0.705000
     10 O4          -0.6020    -1.2000    -1.3960 oh         1 DNO      -0.710000
     11 O5          -1.8170     1.0590     1.3150 oh         1 DNO      -0.688000
     12 O6          -4.2550     0.2840     0.4880 oh         1 DNO      -0.707000
     13 H1           3.4660     0.8830    -1.2790 h4         1 DNO       0.008200
     14 H2           2.1140    -1.1350    -0.7990 h1         1 DNO       0.097700
     15 H3           0.6940     1.1750     0.6150 h1         1 DNO       0.093700
     16 H4          -0.4430    -1.1520     0.7030 h1         1 DNO       0.087700
     17 H5          -1.9360     1.0820    -0.7680 h1         1 DNO       0.091700
     18 H6          -3.3030    -0.9040    -0.9510 h1         1 DNO       0.027700
     19 H6A         -2.9910    -1.3670     0.7350 h1         1 DNO       0.027700
     20 HO2          2.9550    -0.7730     1.7290 ho         1 DNO       0.515000
     21 HO3          0.2510     0.4340    -2.0350 ho         1 DNO       0.499000
     22 HO4         -0.8140    -2.1390    -1.1780 ho         1 DNO       0.500000
     23 HO5         -2.7770     1.1590     1.5320 ho         1 DNO       0.497000
     24 HO6         -5.0630    -0.2720     0.3790 ho         1 DNO       0.505000
@<TRIPOS>BOND
     1     1     2 1   
     2     1     7 2   
     3     1    13 1   
     4     2     3 1   
     5     2     8 1   
     6     2    14 1   
     7     3     4 1   
     8     3     9 1   
     9     3    15 1   
    10     4     5 1   
    11     4    10 1   
    12     4    16 1   
    13     5     6 1   
    14     5    11 1   
    15     5    17 1   
    16     6    12 1   
    17     6    18 1   
    18     6    19 1   
    19     8    20 1   
    20     9    21 1   
    21    10    22 1   
    22    11    23 1   
    23    12    24 1   
@<TRIPOS>SUBSTRUCTURE
     1 DNO         1 TEMP              0 ****  ****    0 ROOT
