@<TRIPOS>MOLECULE
DNO
   24    23     1     0     0
SMALL
bcc


@<TRIPOS>ATOM
      1 C1           3.1660     0.4800    -0.2080 c          1 DNO       0.543900
      2 C2           1.9790    -0.4460    -0.0930 c3         1 DNO      -0.002900
      3 C3           0.6750     0.3820    -0.1870 c3         1 DNO       0.096100
      4 C4          -0.5630    -0.5080    -0.0300 c3         1 DNO       0.083100
      5 C5          -1.8660     0.3120    -0.0330 c3         1 DNO       0.116100
      6 C6          -3.0670    -0.5810     0.2370 c3         1 DNO       0.104400
      7 O1           3.9700     0.6260     0.6780 o          1 DNO      -0.505100
      8 O2           2.0370    -1.2320     1.0590 oh         1 DNO      -0.567800
      9 O3           0.6480     1.1290    -1.3820 oh         1 DNO      -0.582800
     10 O4          -0.5890    -1.5250    -1.0100 oh         1 DNO      -0.587800
     11 O5          -1.8000     1.3830     0.8780 oh         1 DNO      -0.565800
     12 O6          -4.2410     0.1880     0.1140 oh         1 DNO      -0.584800
     13 H1           3.2550     1.0270    -1.1600 h4         1 DNO       0.008200
     14 H2           2.0180    -1.1250    -0.9550 h1         1 DNO       0.097700
     15 H3           0.6760     1.1140     0.6250 h1         1 DNO       0.093700
     16 H4          -0.4870    -1.0210     0.9350 h1         1 DNO       0.087700
     17 H5          -1.9870     0.7710    -1.0210 h1         1 DNO       0.091700
     18 H6          -3.0630    -1.4210    -0.4660 h1         1 DNO       0.027700
     19 H6A         -2.9690    -1.0120     1.2460 h1         1 DNO       0.027700
     20 HO2          2.2460    -0.6670     1.8120 ho         1 DNO       0.416000
     21 HO3          0.7470     0.5350    -2.1350 ho         1 DNO       0.400000
     22 HO4         -0.9070    -1.1610    -1.8430 ho         1 DNO       0.401000
     23 HO5         -1.7660     1.0260     1.7730 ho         1 DNO       0.398000
     24 HO6         -4.9920    -0.3970     0.2470 ho         1 DNO       0.406000
@<TRIPOS>BOND
     1     1     2 1   
     2     1     7 2   
     3     1    13 1   
     4     2     3 1   
     5     2     8 1   
     6     2    14 1   
     7     3     4 1   
     8     3     9 1   
     9     3    15 1   
    10     4     5 1   
    11     4    10 1   
    12     4    16 1   
    13     5     6 1   
    14     5    11 1   
    15     5    17 1   
    16     6    12 1   
    17     6    18 1   
    18     6    19 1   
    19     8    20 1   
    20     9    21 1   
    21    10    22 1   
    22    11    23 1   
    23    12    24 1   
@<TRIPOS>SUBSTRUCTURE
     1 DNO         1 TEMP              0 ****  ****    0 ROOT
