@<TRIPOS>MOLECULE
DNP
   15    14     1     0     0
SMALL
bcc


@<TRIPOS>ATOM
      1 N            3.7000    -3.1480    -4.2890 n8         1 DNP      -0.861800
      2 CA           2.4410    -3.2560    -5.0130 c3         1 DNP      -0.003500
      3 CB           2.1640    -4.6330    -5.6260 c3         1 DNP       0.096800
      4 NG           1.9110    -5.6280    -4.5540 nz         1 DNP      -0.921600
      5 C            1.2990    -2.7970    -4.0690 c          1 DNP       0.934600
      6 O            1.0550    -1.5940    -3.9950 o          1 DNP      -0.746800
      7 OXT          0.7200    -3.7160    -3.4120 o          1 DNP      -0.746800
      8 H            3.7040    -3.7260    -3.4580 hn         1 DNP       0.332800
      9 H2           4.4680    -3.4660    -4.8680 hn         1 DNP       0.332800
     10 HA           2.4830    -2.5580    -5.8530 h1         1 DNP       0.098700
     11 HB2          2.9940    -4.9710    -6.2450 hx         1 DNP       0.069700
     12 HB3          1.2680    -4.6020    -6.2440 hx         1 DNP       0.069700
     13 HG1          1.2960    -5.0630    -3.8660 hn         1 DNP       0.448467
     14 HG2          2.7640    -5.9300    -4.0910 hn         1 DNP       0.448467
     15 HG3          1.4340    -6.4590    -4.8940 hn         1 DNP       0.448467
@<TRIPOS>BOND
     1     1     2 1   
     2     1     8 1   
     3     1     9 1   
     4     2     3 1   
     5     2     5 1   
     6     2    10 1   
     7     3     4 1   
     8     3    11 1   
     9     3    12 1   
    10     4    13 1   
    11     4    14 1   
    12     4    15 1   
    13     5     6 1   
    14     5     7 1   
@<TRIPOS>SUBSTRUCTURE
     1 DNP         1 TEMP              0 ****  ****    0 ROOT
