@<TRIPOS>MOLECULE
DNP
   15    14     1     0     0
SMALL
No Charge or Current Charge


@<TRIPOS>ATOM
      1 N            3.7640    -3.2990    -4.1980 n8         1 DNP      -0.861800
      2 CA           2.4390    -3.2020    -4.9380 c3         1 DNP      -0.003500
      3 CB           2.0650    -4.5590    -5.5860 c3         1 DNP       0.096800
      4 NG           2.0420    -5.6960    -4.6000 nz         1 DNP      -0.921600
      5 C            1.2080    -2.6080    -4.1460 c          1 DNP       0.934600
      6 O            0.8170    -1.4810    -4.4360 o          1 DNP      -0.746800
      7 OXT          0.7130    -3.2820    -3.2470 o          1 DNP      -0.746800
      8 H            3.6490    -3.8630    -3.3490 hn         1 DNP       0.332800
      9 H2           4.4510    -3.8050    -4.7670 hn         1 DNP       0.332800
     10 HA           2.5900    -2.5020    -5.7700 h1         1 DNP       0.098700
     11 HB2          2.7910    -4.8010    -6.3680 hx         1 DNP       0.069700
     12 HB3          1.0770    -4.4760    -6.0490 hx         1 DNP       0.069700
     13 HG1          1.4320    -5.4890    -3.7920 hn         1 DNP       0.448467
     14 HG2          2.9730    -5.9120    -4.2180 hn         1 DNP       0.448467
     15 HG3          1.6900    -6.5730    -5.0140 hn         1 DNP       0.448467
@<TRIPOS>BOND
     1     1     2 1   
     2     1     8 1   
     3     1     9 1   
     4     2     3 1   
     5     2     5 1   
     6     2    10 1   
     7     3     4 1   
     8     3    11 1   
     9     3    12 1   
    10     4    13 1   
    11     4    14 1   
    12     4    15 1   
    13     5     6 1   
    14     5     7 1   
@<TRIPOS>SUBSTRUCTURE
     1 DNP         1 TEMP              0 ****  ****    0 ROOT
