@<TRIPOS>MOLECULE
DNS
   50    51     1     0     0
SMALL
bcc


@<TRIPOS>ATOM
      1 C1          70.0700    20.3970   -40.0800 c3         1 DNS       0.171100
      2 N1          69.4930    19.1710   -40.5900 nh         1 DNS      -0.645000
      3 C2          69.7170    19.0350   -42.0230 c3         1 DNS       0.171100
      4 C3          69.7400    18.0090   -39.8470 ca         1 DNS       0.134600
      5 C4          70.8190    17.8820   -39.0040 ca         1 DNS      -0.162000
      6 C5          71.0370    16.6900   -38.2970 ca         1 DNS      -0.038000
      7 C6          70.2160    15.6080   -38.4490 ca         1 DNS      -0.175000
      8 C7          69.0870    15.6880   -39.2970 ca         1 DNS       0.058000
      9 C8          68.1810    14.6090   -39.5300 ca         1 DNS      -0.295500
     10 S           68.5470    12.9580   -38.9640 sy         1 DNS       1.297200
     11 OA          68.8660    12.9830   -37.5450 o          1 DNS      -0.626300
     12 OB          67.4810    12.0880   -39.4310 o          1 DNS      -0.626300
     13 NZ          69.9010    12.5020   -39.7660 n7         1 DNS      -0.823100
     14 CE          69.8370    12.3790   -41.2270 c3         1 DNS       0.214800
     15 CD          71.1770    12.7030   -41.8640 c3         1 DNS      -0.093400
     16 CG          71.6110    14.1550   -41.6960 c3         1 DNS      -0.081400
     17 CB          72.8590    14.4820   -42.5030 c3         1 DNS      -0.035400
     18 CA          73.3630    15.9180   -42.3450 c3         1 DNS       0.026500
     19 C           74.2260    16.1480   -41.0760 c          1 DNS       0.932600
     20 OXT         75.0730    17.0630   -41.1420 o          1 DNS      -0.839800
     21 O           73.9920    15.4340   -40.0800 o          1 DNS      -0.839800
     22 N           74.1270    16.2930   -43.5300 n8         1 DNS      -0.885800
     23 C9          67.0440    14.7730   -40.2770 ca         1 DNS      -0.019000
     24 C10         66.7350    16.0300   -40.8210 ca         1 DNS      -0.187000
     25 C11         67.6070    17.0700   -40.6740 ca         1 DNS      -0.045000
     26 C12         68.8150    16.9210   -39.9550 ca         1 DNS      -0.067000
     27 H11A        69.6200    21.2410   -40.6030 h1         1 DNS       0.035033
     28 H12         71.1570    20.4650   -40.2220 h1         1 DNS       0.035033
     29 H13         69.8550    20.5060   -39.0180 h1         1 DNS       0.035033
     30 H21         69.2760    18.1190   -42.4090 h1         1 DNS       0.035033
     31 H22         70.7870    19.0220   -42.2700 h1         1 DNS       0.035033
     32 H23         69.2580    19.8740   -42.5460 h1         1 DNS       0.035033
     33 H4          71.5240    18.6940   -38.8830 ha         1 DNS       0.143000
     34 H5          71.8880    16.6210   -37.6340 ha         1 DNS       0.152000
     35 H6          70.4280    14.7170   -37.8790 ha         1 DNS       0.149000
     36 HZ          70.7480    12.9220   -39.4000 hn         1 DNS       0.451800
     37 HE3         69.0840    13.0560   -41.6440 h1         1 DNS       0.042700
     38 HE2         69.5340    11.3630   -41.4790 h1         1 DNS       0.042700
     39 HD3         71.0860    12.4680   -42.9280 hc         1 DNS       0.045200
     40 HD2         71.9470    12.0310   -41.4700 hc         1 DNS       0.045200
     41 HG3         71.7990    14.3860   -40.6470 hc         1 DNS       0.046200
     42 HG2         70.7940    14.8130   -42.0130 hc         1 DNS       0.046200
     43 HB3         72.6270    14.3130   -43.5610 hc         1 DNS       0.024700
     44 HB2         73.6590    13.7770   -42.2570 hc         1 DNS       0.024700
     45 HA          72.4730    16.5640   -42.2150 h1         1 DNS      -0.012300
     46 H           74.5950    17.1680   -43.3400 hn         1 DNS       0.324800
     47 H2          73.4930    16.4600   -44.3020 hn         1 DNS       0.324800
     48 H9          66.3730    13.9430   -40.4490 ha         1 DNS       0.151000
     49 H10         65.8090    16.1620   -41.3630 ha         1 DNS       0.125000
     50 H11         67.3630    18.0370   -41.0930 ha         1 DNS       0.141000
@<TRIPOS>BOND
     1     1     2 1   
     2     1    27 1   
     3     1    28 1   
     4     1    29 1   
     5     2     3 1   
     6     2     4 1   
     7     3    30 1   
     8     3    31 1   
     9     3    32 1   
    10     4     5 ar  
    11     4    26 ar  
    12     5     6 ar  
    13     5    33 1   
    14     6     7 ar  
    15     6    34 1   
    16     7     8 ar  
    17     7    35 1   
    18     8     9 ar  
    19     8    26 ar  
    20     9    10 1   
    21     9    23 ar  
    22    10    11 2   
    23    10    12 2   
    24    10    13 1   
    25    13    14 1   
    26    13    36 1   
    27    14    15 1   
    28    14    37 1   
    29    14    38 1   
    30    15    16 1   
    31    15    39 1   
    32    15    40 1   
    33    16    17 1   
    34    16    41 1   
    35    16    42 1   
    36    17    18 1   
    37    17    43 1   
    38    17    44 1   
    39    18    19 1   
    40    18    22 1   
    41    18    45 1   
    42    19    20 1   
    43    19    21 1   
    44    22    46 1   
    45    22    47 1   
    46    23    24 ar  
    47    23    48 1   
    48    24    25 ar  
    49    24    49 1   
    50    25    26 ar  
    51    25    50 1   
@<TRIPOS>SUBSTRUCTURE
     1 DNS         1 TEMP              0 ****  ****    0 ROOT
