@<TRIPOS>MOLECULE
DNS
   50    51     1     0     0
SMALL
No Charge or Current Charge


@<TRIPOS>ATOM
      1 C1          67.8490    21.0090   -39.3050 c3         1 DNS       0.171100
      2 N1          68.0440    19.8690   -40.2230 nh         1 DNS      -0.645000
      3 C2          67.8480    20.1290   -41.6630 c3         1 DNS       0.171100
      4 C3          68.7390    18.7140   -39.7970 ca         1 DNS       0.134600
      5 C4          70.0590    18.8690   -39.3500 ca         1 DNS      -0.162000
      6 C5          70.8070    17.7590   -38.9470 ca         1 DNS      -0.038000
      7 C6          70.2380    16.4790   -38.9790 ca         1 DNS      -0.175000
      8 C7          68.9010    16.2780   -39.4040 ca         1 DNS       0.058000
      9 C8          68.2910    14.9830   -39.4450 ca         1 DNS      -0.295500
     10 S           69.0980    13.4390   -38.9120 sy         1 DNS       1.297200
     11 OA          69.9040    13.6920   -37.7160 o          1 DNS      -0.626300
     12 OB          68.1640    12.3100   -38.9720 o          1 DNS      -0.626300
     13 NZ          70.2330    13.1430   -40.0970 n7         1 DNS      -0.823100
     14 CE          70.1540    13.8590   -41.3780 c3         1 DNS       0.214800
     15 CD          71.2680    13.3790   -42.3320 c3         1 DNS      -0.093400
     16 CG          72.7020    13.7580   -41.8830 c3         1 DNS      -0.081400
     17 CB          73.7830    13.3360   -42.9070 c3         1 DNS      -0.035400
     18 CA          75.2270    13.7580   -42.5150 c3         1 DNS       0.026500
     19 C           75.6720    13.1500   -41.1060 c          1 DNS       0.932600
     20 OXT         76.1240    13.9130   -40.2570 o          1 DNS      -0.839800
     21 O           75.6210    11.9350   -40.9280 o          1 DNS      -0.839800
     22 N           76.1570    13.5300   -43.6830 n8         1 DNS      -0.885800
     23 C9          66.9620    14.8610   -39.9100 ca         1 DNS      -0.019000
     24 C10         66.2370    15.9860   -40.3120 ca         1 DNS      -0.187000
     25 C11         66.8210    17.2550   -40.2640 ca         1 DNS      -0.045000
     26 C12         68.1540    17.4180   -39.8240 ca         1 DNS      -0.067000
     27 H11A        66.8850    21.4970   -39.5010 h1         1 DNS       0.035033
     28 H12         68.6520    21.7470   -39.4320 h1         1 DNS       0.035033
     29 H13         67.8490    20.6650   -38.2620 h1         1 DNS       0.035033
     30 H21         68.0500    19.2220   -42.2490 h1         1 DNS       0.035033
     31 H22         68.5270    20.9200   -42.0060 h1         1 DNS       0.035033
     32 H23         66.8130    20.4370   -41.8590 h1         1 DNS       0.035033
     33 H4          70.5140    19.8560   -39.3320 ha         1 DNS       0.143000
     34 H5          71.8360    17.8900   -38.6150 ha         1 DNS       0.152000
     35 H6          70.8760    15.6600   -38.6740 ha         1 DNS       0.149000
     36 HZ          71.0820    13.3990   -39.6030 hn         1 DNS       0.451800
     37 HE3         70.2560    14.9440   -41.2480 h1         1 DNS       0.042700
     38 HE2         69.1840    13.6690   -41.8570 h1         1 DNS       0.042700
     39 HD3         71.0810    13.8180   -43.3200 hc         1 DNS       0.045200
     40 HD2         71.1950    12.2910   -42.4540 hc         1 DNS       0.045200
     41 HG3         72.9150    13.2880   -40.9160 hc         1 DNS       0.046200
     42 HG2         72.7560    14.8440   -41.7320 hc         1 DNS       0.046200
     43 HB3         73.5330    13.7820   -43.8780 hc         1 DNS       0.024700
     44 HB2         73.7450    12.2480   -43.0420 hc         1 DNS       0.024700
     45 HA          75.2050    14.8490   -42.3880 h1         1 DNS      -0.012300
     46 H           77.0680    13.9560   -43.4780 hn         1 DNS       0.324800
     47 H2          75.8100    14.0450   -44.4980 hn         1 DNS       0.324800
     48 H9          66.4730    13.8880   -39.9560 ha         1 DNS       0.151000
     49 H10         65.2110    15.8750   -40.6580 ha         1 DNS       0.125000
     50 H11         66.2250    18.1100   -40.5720 ha         1 DNS       0.141000
@<TRIPOS>BOND
     1     1     2 1   
     2     1    27 1   
     3     1    28 1   
     4     1    29 1   
     5     2     3 1   
     6     2     4 1   
     7     3    30 1   
     8     3    31 1   
     9     3    32 1   
    10     4     5 ar  
    11     4    26 ar  
    12     5     6 ar  
    13     5    33 1   
    14     6     7 ar  
    15     6    34 1   
    16     7     8 ar  
    17     7    35 1   
    18     8     9 ar  
    19     8    26 ar  
    20     9    10 1   
    21     9    23 ar  
    22    10    11 2   
    23    10    12 2   
    24    10    13 1   
    25    13    14 1   
    26    13    36 1   
    27    14    15 1   
    28    14    37 1   
    29    14    38 1   
    30    15    16 1   
    31    15    39 1   
    32    15    40 1   
    33    16    17 1   
    34    16    41 1   
    35    16    42 1   
    36    17    18 1   
    37    17    43 1   
    38    17    44 1   
    39    18    19 1   
    40    18    22 1   
    41    18    45 1   
    42    19    20 1   
    43    19    21 1   
    44    22    46 1   
    45    22    47 1   
    46    23    24 ar  
    47    23    48 1   
    48    24    25 ar  
    49    24    49 1   
    50    25    26 ar  
    51    25    50 1   
@<TRIPOS>SUBSTRUCTURE
     1 DNS         1 TEMP              0 ****  ****    0 ROOT
