@<TRIPOS>MOLECULE
DNT
   38    38     1     0     0
SMALL
bcc


@<TRIPOS>ATOM
      1 C13          7.1230     0.0830     1.5110 c3         1 DNT      -0.089100
      2 C12          6.1730    -0.3020     0.3860 c3         1 DNT      -0.074400
      3 C11          4.7230     0.0580     0.6890 c3         1 DNT      -0.076400
      4 C9           3.7600    -0.3360    -0.4250 c3         1 DNT      -0.074400
      5 C8           2.3170     0.0310    -0.1020 c3         1 DNT      -0.072400
      6 C7           1.2960    -0.4830    -1.1270 c3         1 DNT      -0.009400
      7 C10          1.5100     0.0990    -2.5250 c3         1 DNT      -0.089100
      8 C6          -0.1050    -0.1940    -0.6360 ca         1 DNT      -0.139300
      9 C1          -0.9880    -1.2360    -0.2800 ca         1 DNT       0.279100
     10 O1          -0.5540    -2.4720    -0.4010 oh         1 DNT      -0.467100
     11 C2          -2.2790    -0.8970     0.1850 ca         1 DNT      -0.317200
     12 C3          -2.6930     0.4210     0.3010 ca         1 DNT       0.039000
     13 C4          -1.8090     1.4130    -0.0480 ca         1 DNT      -0.240200
     14 C5          -0.5300     1.1090    -0.5110 ca         1 DNT       0.008000
     15 N4          -2.2200     2.7970     0.0670 no         1 DNT       0.325200
     16 O61         -1.4270     3.6490    -0.2570 o          1 DNT      -0.202000
     17 O41         -3.3320     3.0290     0.4790 o          1 DNT      -0.202000
     18 N6          -3.2240    -1.9190     0.5630 no         1 DNT       0.327200
     19 O62         -4.3130    -1.5940     0.9540 o          1 DNT      -0.207000
     20 O42         -2.8750    -3.0870     0.4700 o          1 DNT      -0.207000
     21 H131         7.1080     1.1600     1.6890 hc         1 DNT       0.032700
     22 H132         6.8450    -0.4080     2.4460 hc         1 DNT       0.032700
     23 H133         8.1520    -0.2000     1.2830 hc         1 DNT       0.032700
     24 H121         6.4830     0.1900    -0.5410 hc         1 DNT       0.037700
     25 H122         6.2460    -1.3780     0.1970 hc         1 DNT       0.037700
     26 H111         4.4160    -0.4280     1.6210 hc         1 DNT       0.038700
     27 H112         4.6480     1.1360     0.8700 hc         1 DNT       0.038700
     28 H91          4.0750     0.1450    -1.3560 hc         1 DNT       0.041200
     29 H92          3.8300    -1.4160    -0.6000 hc         1 DNT       0.041200
     30 H81          2.0580    -0.3770     0.8800 hc         1 DNT       0.042700
     31 H82          2.2290     1.1200    -0.0120 hc         1 DNT       0.042700
     32 H7           1.4270    -1.5640    -1.2010 hc         1 DNT       0.075700
     33 H101         2.4820    -0.1910    -2.9220 hc         1 DNT       0.041367
     34 H102         0.7510    -0.2640    -3.2190 hc         1 DNT       0.041367
     35 H103         1.4690     1.1900    -2.5230 hc         1 DNT       0.041367
     36 HO1         -1.2570    -3.0920    -0.1250 ho         1 DNT       0.490000
     37 H3          -3.6840     0.6540     0.6590 ha         1 DNT       0.203000
     38 H5           0.1490     1.9090    -0.7750 ha         1 DNT       0.181000
@<TRIPOS>BOND
     1     1     2 1   
     2     1    21 1   
     3     1    22 1   
     4     1    23 1   
     5     2     3 1   
     6     2    24 1   
     7     2    25 1   
     8     3     4 1   
     9     3    26 1   
    10     3    27 1   
    11     4     5 1   
    12     4    28 1   
    13     4    29 1   
    14     5     6 1   
    15     5    30 1   
    16     5    31 1   
    17     6     7 1   
    18     6     8 1   
    19     6    32 1   
    20     7    33 1   
    21     7    34 1   
    22     7    35 1   
    23     8     9 ar  
    24     8    14 ar  
    25     9    10 1   
    26     9    11 ar  
    27    10    36 1   
    28    11    12 ar  
    29    11    18 1   
    30    12    13 ar  
    31    12    37 1   
    32    13    14 ar  
    33    13    15 1   
    34    14    38 1   
    35    15    16 1   
    36    15    17 1   
    37    18    19 1   
    38    18    20 1   
@<TRIPOS>SUBSTRUCTURE
     1 DNT         1 TEMP              0 ****  ****    0 ROOT
