@<TRIPOS>MOLECULE
DNT
   38    38     1     0     0
SMALL
No Charge or Current Charge


@<TRIPOS>ATOM
      1 C13          7.2350     0.1130     1.5080 c3         1 DNT      -0.089100
      2 C12          6.2480    -0.3390     0.4140 c3         1 DNT      -0.074400
      3 C11          4.7900     0.0770     0.7050 c3         1 DNT      -0.076400
      4 C9           3.8010    -0.3760    -0.3920 c3         1 DNT      -0.074400
      5 C8           2.3410     0.0450    -0.0970 c3         1 DNT      -0.072400
      6 C7           1.2970    -0.4670    -1.1280 c3         1 DNT      -0.009400
      7 C10          1.5110     0.1190    -2.5450 c3         1 DNT      -0.089100
      8 C6          -0.1370    -0.1940    -0.6290 ca         1 DNT      -0.139300
      9 C1          -1.0310    -1.2430    -0.2900 ca         1 DNT       0.279100
     10 O1          -0.6040    -2.5340    -0.4090 oh         1 DNT      -0.506100
     11 C2          -2.3410    -0.9490     0.1690 ca         1 DNT      -0.317200
     12 C3          -2.7450     0.4030     0.2850 ca         1 DNT       0.057000
     13 C4          -1.8620     1.4490    -0.0470 ca         1 DNT      -0.240200
     14 C5          -0.5640     1.1430    -0.5000 ca         1 DNT       0.026000
     15 N4          -2.2980     2.8750     0.0810 no         1 DNT       0.705200
     16 O61         -1.4910     3.7630    -0.2220 o          1 DNT      -0.392000
     17 O41         -3.4450     3.1030     0.4840 o          1 DNT      -0.392000
     18 N6          -3.3270    -2.0160     0.5450 no         1 DNT       0.707200
     19 O62         -4.3950    -1.6700     1.0630 o          1 DNT      -0.397000
     20 O42         -3.0330    -3.1980     0.3220 o          1 DNT      -0.397000
     21 H131         7.2300     1.2050     1.6080 hc         1 DNT       0.032700
     22 H132         6.9670    -0.3250     2.4770 hc         1 DNT       0.032700
     23 H133         8.2540    -0.2040     1.2570 hc         1 DNT       0.032700
     24 H121         6.5630     0.0870    -0.5480 hc         1 DNT       0.037700
     25 H122         6.3020    -1.4300     0.3140 hc         1 DNT       0.037700
     26 H111         4.4800    -0.3480     1.6680 hc         1 DNT       0.038700
     27 H112         4.7400     1.1690     0.8060 hc         1 DNT       0.038700
     28 H91          4.1210     0.0490    -1.3500 hc         1 DNT       0.041200
     29 H92          3.8500    -1.4680    -0.4910 hc         1 DNT       0.041200
     30 H81          2.0640    -0.3390     0.8930 hc         1 DNT       0.042700
     31 H82          2.2920     1.1390    -0.0320 hc         1 DNT       0.042700
     32 H7           1.4660    -1.5450    -1.2260 hc         1 DNT       0.075700
     33 H101         2.4560    -0.2280    -2.9770 hc         1 DNT       0.041367
     34 H102         0.7040    -0.2020    -3.2160 hc         1 DNT       0.041367
     35 H103         1.5260     1.2150    -2.5290 hc         1 DNT       0.041367
     36 HO1         -1.3660    -3.1160    -0.1850 ho         1 DNT       0.529000
     37 H3          -3.7500     0.6460     0.6340 ha         1 DNT       0.185000
     38 H5           0.1260     1.9450    -0.7560 ha         1 DNT       0.163000
@<TRIPOS>BOND
     1     1     2 1   
     2     1    21 1   
     3     1    22 1   
     4     1    23 1   
     5     2     3 1   
     6     2    24 1   
     7     2    25 1   
     8     3     4 1   
     9     3    26 1   
    10     3    27 1   
    11     4     5 1   
    12     4    28 1   
    13     4    29 1   
    14     5     6 1   
    15     5    30 1   
    16     5    31 1   
    17     6     7 1   
    18     6     8 1   
    19     6    32 1   
    20     7    33 1   
    21     7    34 1   
    22     7    35 1   
    23     8     9 ar  
    24     8    14 ar  
    25     9    10 1   
    26     9    11 ar  
    27    10    36 1   
    28    11    12 ar  
    29    11    18 1   
    30    12    13 ar  
    31    12    37 1   
    32    13    14 ar  
    33    13    15 1   
    34    14    38 1   
    35    15    16 1   
    36    15    17 1   
    37    18    19 1   
    38    18    20 1   
@<TRIPOS>SUBSTRUCTURE
     1 DNT         1 TEMP              0 ****  ****    0 ROOT
