@<TRIPOS>MOLECULE
DNV
   47    50     1     0     0
SMALL
abcg2


@<TRIPOS>ATOM
      1 C10        -25.6170    24.2490     2.2070 c3         1 DNV       0.155600
      2 C15        -28.4560    22.0240    -0.3860 cc         1 DNV      -0.236000
      3 C17        -26.0200    21.4390    -0.3680 c3         1 DNV       0.055900
      4 C20        -24.4370    20.2810     3.2010 cc         1 DNV      -0.346800
      5 C21        -23.9460    19.1690     3.9620 ca         1 DNV       0.298800
      6 C22        -24.0710    19.5210     5.3370 ca         1 DNV      -0.054200
      7 C28        -23.0700    17.1540     4.5290 ca         1 DNV       0.284900
      8 C02        -27.3950    22.9580     5.5400 ca         1 DNV       0.138000
      9 C03        -28.7390    22.8960     5.8930 ca         1 DNV      -0.106000
     10 C04        -29.6570    22.3880     4.9850 ca         1 DNV      -0.103000
     11 C05        -29.2270    21.9430     3.7380 ca         1 DNV      -0.112000
     12 C06        -27.8820    22.0110     3.4070 ca         1 DNV      -0.067000
     13 C07        -26.9400    22.5260     4.2980 ca         1 DNV      -0.110300
     14 C08        -25.4710    22.5690     3.8810 c3         1 DNV       0.286800
     15 C18        -24.8290    21.2350     4.1080 cd         1 DNV      -0.085300
     16 C23        -23.6690    18.6510     6.3460 ca         1 DNV      -0.102600
     17 C27        -23.1580    17.4360     5.8970 ca         1 DNV      -0.142000
     18 N19        -24.6100    20.7770     5.3880 na         1 DNV      -0.191700
     19 N29        -23.4500    17.9890     3.5590 nb         1 DNV      -0.671000
     20 O09        -25.3360    22.8830     2.5090 os         1 DNV      -0.460000
     21 O25        -23.3770    18.1740     8.6560 o          1 DNV      -0.720500
     22 O26        -24.2850    20.1440     8.0710 o          1 DNV      -0.720500
     23 CL1        -26.2690    23.5980     6.7290 cl         1 DNV      -0.208000
     24 C11        -25.8740    24.3690     0.7110 c3         1 DNV      -0.099700
     25 C12        -27.1050    23.6400     0.2840 cc         1 DNV       0.411800
     26 C14        -29.1760    23.1420    -0.0720 cd         1 DNV       0.224900
     27 N13        -28.3280    24.1440     0.3430 nd         1 DNV      -0.690000
     28 N16        -27.1360    22.3480    -0.1550 na         1 DNV      -0.158500
     29 H1         -24.7670    24.8730     2.5030 h1         1 DNV       0.041700
     30 H2         -26.5010    24.5830     2.7590 h1         1 DNV       0.041700
     31 H3         -28.7430    21.0500    -0.7440 h4         1 DNV       0.153000
     32 H4         -25.1030    21.8990    -0.0200 h1         1 DNV       0.059033
     33 H5         -26.1830    20.5210     0.1940 h1         1 DNV       0.059033
     34 H6         -25.9280    21.2010    -1.4280 h1         1 DNV       0.059033
     35 H7         -24.4970    20.3630     2.1300 ha         1 DNV       0.191000
     36 H8         -22.6700    16.1980     4.2080 h4         1 DNV      -0.009900
     37 H9         -29.0550    23.2440     6.8670 ha         1 DNV       0.125000
     38 H10        -30.7040    22.3410     5.2540 ha         1 DNV       0.108000
     39 H11        -29.9370    21.5480     3.0230 ha         1 DNV       0.112000
     40 H12        -27.5430    21.6750     2.4370 ha         1 DNV       0.130000
     41 H13        -24.9530    23.3200     4.4860 h1         1 DNV       0.058700
     42 H14        -22.8240    16.7030     6.6190 ha         1 DNV       0.131000
     43 H15        -24.7810    21.2480     6.2650 hn         1 DNV       0.397000
     44 H17        -24.9970    24.0230     0.1620 hc         1 DNV       0.062700
     45 H18        -26.0070    25.4260     0.4760 hc         1 DNV       0.062700
     46 H19        -30.2440    23.2830    -0.1210 h4         1 DNV       0.030100
     47 C24        -23.7850    19.0140     7.8210 c          1 DNV       0.715600
@<TRIPOS>BOND
     1     1    20 1   
     2     1    24 1   
     3     1    29 1   
     4     1    30 1   
     5     2    26 2   
     6     2    28 1   
     7     2    31 1   
     8     3    28 1   
     9     3    32 1   
    10     3    33 1   
    11     3    34 1   
    12     4     5 1   
    13     4    15 2   
    14     4    35 1   
    15     5     6 ar  
    16     5    19 ar  
    17     6    16 ar  
    18     6    18 1   
    19     7    17 ar  
    20     7    19 ar  
    21     7    36 1   
    22     8     9 ar  
    23     8    13 ar  
    24     8    23 1   
    25     9    10 ar  
    26     9    37 1   
    27    10    11 ar  
    28    10    38 1   
    29    11    12 ar  
    30    11    39 1   
    31    12    13 ar  
    32    12    40 1   
    33    13    14 1   
    34    14    15 1   
    35    14    20 1   
    36    14    41 1   
    37    15    18 1   
    38    16    17 ar  
    39    16    47 1   
    40    17    42 1   
    41    18    43 1   
    42    21    47 1   
    43    22    47 1   
    44    24    25 1   
    45    24    44 1   
    46    24    45 1   
    47    25    27 2   
    48    25    28 1   
    49    26    27 1   
    50    26    46 1   
@<TRIPOS>SUBSTRUCTURE
     1 DNV         1 TEMP              0 ****  ****    0 ROOT
