@<TRIPOS>MOLECULE
DNV
   47    50     1     0     0
SMALL
No Charge or Current Charge


@<TRIPOS>ATOM
      1 C10        -25.8350    24.2330     2.4000 c3         1 DNV       0.155600
      2 C15        -28.0250    21.9890    -0.8370 cc         1 DNV      -0.236000
      3 C17        -25.6060    21.4390    -0.2940 c3         1 DNV       0.055900
      4 C20        -25.3780    19.9650     3.6260 cc         1 DNV      -0.346800
      5 C21        -24.5940    18.9510     4.2460 ca         1 DNV       0.298800
      6 C22        -23.9570    19.5270     5.3150 ca         1 DNV      -0.054200
      7 C28        -23.6740    16.9030     4.6290 ca         1 DNV       0.284900
      8 C02        -27.7650    22.9550     5.7090 ca         1 DNV       0.138000
      9 C03        -29.1430    22.9660     5.9910 ca         1 DNV      -0.106000
     10 C04        -30.0700    22.5520     5.0210 ca         1 DNV      -0.103000
     11 C05        -29.6180    22.1180     3.7660 ca         1 DNV      -0.112000
     12 C06        -28.2430    22.1030     3.4790 ca         1 DNV      -0.067000
     13 C07        -27.3000    22.5320     4.4420 ca         1 DNV      -0.110300
     14 C08        -25.8010    22.5060     4.1140 c3         1 DNV       0.286800
     15 C18        -25.1860    21.1410     4.3470 cd         1 DNV      -0.085300
     16 C23        -23.1000    18.7620     6.1360 ca         1 DNV      -0.102600
     17 C27        -22.9710    17.3990     5.7540 ca         1 DNV      -0.142000
     18 N19        -24.2950    20.8710     5.4160 na         1 DNV      -0.191700
     19 N29        -24.4910    17.6680     3.8630 nb         1 DNV      -0.671000
     20 O09        -25.5970    22.8550     2.7320 os         1 DNV      -0.460000
     21 O25        -21.6440    18.5830     7.9860 o          1 DNV      -0.720500
     22 O26        -22.5060    20.5160     7.6160 o          1 DNV      -0.720500
     23 Cl1        -26.6520    23.4650     6.9790 cl         1 DNV      -0.208000
     24 C11        -25.7760    24.3570     0.8700 c3         1 DNV      -0.099700
     25 C12        -26.8860    23.6010     0.1880 cc         1 DNV       0.411800
     26 C14        -28.8100    23.0950    -0.6470 cd         1 DNV       0.224900
     27 N13        -28.0990    24.0940    -0.0160 nd         1 DNV      -0.690000
     28 N16        -26.7920    22.3120    -0.3110 na         1 DNV      -0.158500
     29 H1         -25.0710    24.8780     2.8540 h1         1 DNV       0.041700
     30 H2         -26.8210    24.5670     2.7510 h1         1 DNV       0.041700
     31 H3         -28.2490    21.0340    -1.2950 h4         1 DNV       0.153000
     32 H4         -25.3190    21.2210     0.7410 h1         1 DNV       0.059033
     33 H5         -25.8300    20.4960    -0.8080 h1         1 DNV       0.059033
     34 H6         -24.7730    21.9360    -0.8050 h1         1 DNV       0.059033
     35 H7         -26.0130    19.8520     2.7550 ha         1 DNV       0.191000
     36 H8         -23.5780    15.8590     4.3350 h4         1 DNV      -0.009900
     37 H9         -29.4910    23.2940     6.9670 ha         1 DNV       0.125000
     38 H10        -31.1350    22.5620     5.2440 ha         1 DNV       0.108000
     39 H11        -30.3320    21.7900     3.0140 ha         1 DNV       0.112000
     40 H12        -27.9100    21.7570     2.5030 ha         1 DNV       0.130000
     41 H13        -25.2680    23.2300     4.7440 h1         1 DNV       0.058700
     42 H14        -22.3360    16.7220     6.3170 ha         1 DNV       0.131000
     43 H15        -23.9630    21.5180     6.1270 hn         1 DNV       0.397000
     44 H17        -24.7970    24.0170     0.5140 hc         1 DNV       0.062700
     45 H18        -25.8450    25.4180     0.6030 hc         1 DNV       0.062700
     46 H19        -29.8470    23.2280    -0.9300 h4         1 DNV       0.030100
     47 C24        -22.3610    19.3330     7.3380 c          1 DNV       0.715600
@<TRIPOS>BOND
     1     1    20 1   
     2     1    24 1   
     3     1    29 1   
     4     1    30 1   
     5     2    26 2   
     6     2    28 1   
     7     2    31 1   
     8     3    28 1   
     9     3    32 1   
    10     3    33 1   
    11     3    34 1   
    12     4     5 1   
    13     4    15 2   
    14     4    35 1   
    15     5     6 ar  
    16     5    19 ar  
    17     6    16 ar  
    18     6    18 1   
    19     7    17 ar  
    20     7    19 ar  
    21     7    36 1   
    22     8     9 ar  
    23     8    13 ar  
    24     8    23 1   
    25     9    10 ar  
    26     9    37 1   
    27    10    11 ar  
    28    10    38 1   
    29    11    12 ar  
    30    11    39 1   
    31    12    13 ar  
    32    12    40 1   
    33    13    14 1   
    34    14    15 1   
    35    14    20 1   
    36    14    41 1   
    37    15    18 1   
    38    16    17 ar  
    39    16    47 1   
    40    17    42 1   
    41    18    43 1   
    42    21    47 1   
    43    22    47 1   
    44    24    25 1   
    45    24    44 1   
    46    24    45 1   
    47    25    27 2   
    48    25    28 1   
    49    26    27 1   
    50    26    46 1   
@<TRIPOS>SUBSTRUCTURE
     1 DNV         1 TEMP              0 ****  ****    0 ROOT
