@<TRIPOS>MOLECULE
DNX
   17    17     1     0     0
SMALL
No Charge or Current Charge


@<TRIPOS>ATOM
      1 C1           2.4680     0.1190    -0.0960 ca         1 DNX       0.198100
      2 C2           1.4880    -0.8830    -0.1620 ca         1 DNX      -0.189000
      3 C3           0.1110    -0.5540    -0.1120 ca         1 DNX      -0.051200
      4 N3          -0.9040    -1.6560    -0.2430 no         1 DNX       0.700200
      5 C4          -0.2670     0.8160     0.0270 ca         1 DNX      -0.186200
      6 N4          -1.6950     1.2350     0.1550 no         1 DNX       0.705200
      7 C5           0.7330     1.8130     0.0810 ca         1 DNX      -0.005000
      8 C6           2.0910     1.4620     0.0190 ca         1 DNX      -0.141000
      9 O1           3.7910    -0.2040    -0.1520 oh         1 DNX      -0.507100
     10 O31         -0.6520    -2.7380     0.3040 o          1 DNX      -0.360500
     11 O32         -1.8360    -1.4910    -1.0430 o          1 DNX      -0.360500
     12 O41         -2.0350     2.2900    -0.3940 o          1 DNX      -0.380000
     13 O42         -2.4020     0.6210     0.9640 o          1 DNX      -0.380000
     14 H2           1.7890    -1.9230    -0.2700 ha         1 DNX       0.151000
     15 H5           0.4620     2.8630     0.1890 ha         1 DNX       0.162000
     16 H6           2.8540     2.2340     0.0670 ha         1 DNX       0.154000
     17 HO1          3.8720    -1.1780    -0.2290 ho         1 DNX       0.487000
@<TRIPOS>BOND
     1     1     2 ar  
     2     1     8 ar  
     3     1     9 1   
     4     2     3 ar  
     5     2    14 1   
     6     3     4 1   
     7     3     5 ar  
     8     4    10 1   
     9     4    11 1   
    10     5     6 1   
    11     5     7 ar  
    12     6    12 1   
    13     6    13 1   
    14     7     8 ar  
    15     7    15 1   
    16     8    16 1   
    17     9    17 1   
@<TRIPOS>SUBSTRUCTURE
     1 DNX         1 TEMP              0 ****  ****    0 ROOT
