@<TRIPOS>MOLECULE
DNX
   17    17     1     0     0
SMALL
bcc


@<TRIPOS>ATOM
      1 C1           2.4290     0.1030    -0.1250 ca         1 DNX       0.198100
      2 C2           1.4410    -0.8850    -0.1600 ca         1 DNX      -0.207000
      3 C3           0.1180    -0.5190    -0.0890 ca         1 DNX      -0.051200
      4 N3          -0.8570    -1.5980    -0.2370 no         1 DNX       0.320200
      5 C4          -0.2580     0.8150     0.0290 ca         1 DNX      -0.186200
      6 N4          -1.6360     1.2030     0.2070 no         1 DNX       0.325200
      7 C5           0.7290     1.7910     0.0630 ca         1 DNX      -0.023000
      8 C6           2.0600     1.4440    -0.0160 ca         1 DNX      -0.159000
      9 O1           3.7230    -0.1830    -0.1940 oh         1 DNX      -0.468100
     10 O31         -0.8580    -2.4530     0.6090 o          1 DNX      -0.170500
     11 O32         -1.5460    -1.5760    -1.2230 o          1 DNX      -0.170500
     12 O41         -1.9410     2.3420    -0.0470 o          1 DNX      -0.190000
     13 O42         -2.4040     0.3650     0.6220 o          1 DNX      -0.190000
     14 H2           1.7110    -1.9280    -0.2720 ha         1 DNX       0.169000
     15 H5           0.4590     2.8310     0.1760 ha         1 DNX       0.180000
     16 H6           2.8220     2.2110     0.0190 ha         1 DNX       0.172000
     17 HO1          3.8760    -1.1350    -0.2570 ho         1 DNX       0.448000
@<TRIPOS>BOND
     1     1     2 ar  
     2     1     8 ar  
     3     1     9 1   
     4     2     3 ar  
     5     2    14 1   
     6     3     4 1   
     7     3     5 ar  
     8     4    10 1   
     9     4    11 1   
    10     5     6 1   
    11     5     7 ar  
    12     6    12 1   
    13     6    13 1   
    14     7     8 ar  
    15     7    15 1   
    16     8    16 1   
    17     9    17 1   
@<TRIPOS>SUBSTRUCTURE
     1 DNX         1 TEMP              0 ****  ****    0 ROOT
