@<TRIPOS>MOLECULE
DNY
   55    58     1     0     0
SMALL
abcg2


@<TRIPOS>ATOM
      1 C10          2.0920     0.2790     0.4720 c3         1 DNY       0.158600
      2 C15          8.2380    -0.3580    -0.0460 c6         1 DNY      -0.075900
      3 C17          7.1430    -2.5870    -0.2010 c6         1 DNY      -0.075900
      4 C21         -1.3660    -1.5080    -1.1530 cc         1 DNY      -0.338800
      5 C22         -2.7150    -1.9620    -1.2780 ca         1 DNY       0.294800
      6 C24         -4.8620    -1.4160    -0.2420 ca         1 DNY      -0.109600
      7 C28         -5.3730    -2.4020    -1.0710 ca         1 DNY      -0.144000
      8 C02         -1.0360     2.7450     0.6270 ca         1 DNY       0.134000
      9 C03         -1.2110     4.0430     0.1660 ca         1 DNY      -0.107000
     10 C04         -0.7930     4.3710    -1.1130 ca         1 DNY      -0.105000
     11 C05         -0.2090     3.4030    -1.9200 ca         1 DNY      -0.120000
     12 C06         -0.0440     2.1140    -1.4420 ca         1 DNY      -0.074000
     13 C07         -0.4480     1.7590    -0.1560 ca         1 DNY      -0.108300
     14 C08         -0.2550     0.3230     0.3100 c3         1 DNY       0.285800
     15 C11          3.3050    -0.4590    -0.0570 c3         1 DNY      -0.081400
     16 C12          4.5720     0.0320     0.6340 c3         1 DNY       0.168800
     17 C14          6.9560     0.1710     0.5800 c6         1 DNY       0.166300
     18 C16          8.3990    -1.8460     0.2340 c6         1 DNY      -0.074400
     19 C18          5.9020    -1.9720     0.4300 c6         1 DNY       0.166300
     20 C19         -1.3790    -0.5260    -0.2010 cd         1 DNY      -0.095300
     21 C23         -3.4920    -1.2050    -0.3680 ca         1 DNY      -0.056200
     22 C25         -5.7170    -0.6210     0.7310 c          1 DNY       0.722600
     23 C29         -4.5380    -3.1050    -1.9480 ca         1 DNY       0.284900
     24 N13          5.7890    -0.5580     0.1090 n3         1 DNY      -0.714600
     25 N20         -2.6500    -0.3450     0.2650 na         1 DNY      -0.184700
     26 N30         -3.2350    -2.9060    -2.0650 nb         1 DNY      -0.666000
     27 O09          0.9360    -0.2260    -0.1670 os         1 DNY      -0.439000
     28 O26         -5.1100     0.2380     1.4060 o          1 DNY      -0.721000
     29 O27         -6.9280    -0.8900     0.7680 o          1 DNY      -0.721000
     30 CL1         -1.5930     2.3790     2.2370 cl         1 DNY      -0.199000
     31 H1           2.0070     0.1420     1.5590 h1         1 DNY       0.022200
     32 H2           2.1980     1.3560     0.2930 h1         1 DNY       0.022200
     33 H3           8.2060    -0.1880    -1.1270 hc         1 DNY       0.044200
     34 H4           9.0880     0.2080     0.3410 hc         1 DNY       0.044200
     35 H5           7.0490    -2.5400    -1.2900 hc         1 DNY       0.044200
     36 H6           7.1980    -3.6440     0.0690 hc         1 DNY       0.044200
     37 H7          -0.5080    -1.8630    -1.7000 ha         1 DNY       0.201000
     38 H8          -6.4290    -2.6360    -1.0440 ha         1 DNY       0.129000
     39 H9          -1.6690     4.7880     0.8020 ha         1 DNY       0.125000
     40 H10         -0.9260     5.3810    -1.4740 ha         1 DNY       0.108000
     41 H11          0.1180     3.6510    -2.9210 ha         1 DNY       0.110000
     42 H12          0.4140     1.3630    -2.0730 ha         1 DNY       0.132000
     43 H13         -0.2690     0.2980     1.4100 h1         1 DNY       0.055700
     44 H14          3.1630    -1.5310     0.1030 hc         1 DNY       0.060700
     45 H15          3.3970    -0.2990    -1.1340 hc         1 DNY       0.060700
     46 H16          4.6410     1.1150     0.4940 h1         1 DNY       0.027200
     47 H17          4.4800    -0.1300     1.7230 h1         1 DNY       0.027200
     48 H18          7.0450     0.1150     1.6810 h1         1 DNY       0.029700
     49 H19          6.8290     1.2280     0.3320 h1         1 DNY       0.029700
     50 H20          9.2800    -2.2440    -0.2740 hc         1 DNY       0.034700
     51 H21          8.5590    -1.9980     1.3070 hc         1 DNY       0.034700
     52 H22          5.0180    -2.4980     0.0660 h1         1 DNY       0.029700
     53 H23          5.9340    -2.1270     1.5240 h1         1 DNY       0.029700
     54 H24         -4.9670    -3.8720    -2.5850 h4         1 DNY      -0.011900
     55 H26         -2.9730     0.2880     0.9820 hn         1 DNY       0.394000
@<TRIPOS>BOND
     1     1    15 1   
     2     1    27 1   
     3     1    31 1   
     4     1    32 1   
     5     2    17 1   
     6     2    18 1   
     7     2    33 1   
     8     2    34 1   
     9     3    18 1   
    10     3    19 1   
    11     3    35 1   
    12     3    36 1   
    13     4     5 1   
    14     4    20 2   
    15     4    37 1   
    16     5    21 ar  
    17     5    26 ar  
    18     6     7 ar  
    19     6    21 ar  
    20     6    22 1   
    21     7    23 ar  
    22     7    38 1   
    23     8     9 ar  
    24     8    13 ar  
    25     8    30 1   
    26     9    10 ar  
    27     9    39 1   
    28    10    11 ar  
    29    10    40 1   
    30    11    12 ar  
    31    11    41 1   
    32    12    13 ar  
    33    12    42 1   
    34    13    14 1   
    35    14    20 1   
    36    14    27 1   
    37    14    43 1   
    38    15    16 1   
    39    15    44 1   
    40    15    45 1   
    41    16    24 1   
    42    16    46 1   
    43    16    47 1   
    44    17    24 1   
    45    17    48 1   
    46    17    49 1   
    47    18    50 1   
    48    18    51 1   
    49    19    24 1   
    50    19    52 1   
    51    19    53 1   
    52    20    25 1   
    53    21    25 1   
    54    22    28 1   
    55    22    29 1   
    56    23    26 ar  
    57    23    54 1   
    58    25    55 1   
@<TRIPOS>SUBSTRUCTURE
     1 DNY         1 TEMP              0 ****  ****    0 ROOT
