@<TRIPOS>MOLECULE
DNY
   55    58     1     0     0
SMALL
No Charge or Current Charge


@<TRIPOS>ATOM
      1 C10          2.0340     0.3510     0.6240 c3         1 DNY       0.158600
      2 C15          8.3130    -0.3610    -0.0300 c6         1 DNY      -0.075900
      3 C17          7.1660    -2.6000    -0.3080 c6         1 DNY      -0.075900
      4 C21         -1.5290    -1.3240    -1.2350 cc         1 DNY      -0.338800
      5 C22         -2.8440    -1.8630    -1.3280 ca         1 DNY       0.294800
      6 C24         -4.9520    -1.6230    -0.1700 ca         1 DNY      -0.109600
      7 C28         -5.4430    -2.5770    -1.1020 ca         1 DNY      -0.144000
      8 C02         -0.9510     2.9300     0.5590 ca         1 DNY       0.134000
      9 C03         -0.9970     4.2280     0.0190 ca         1 DNY      -0.107000
     10 C04         -0.5400     4.4710    -1.2860 ca         1 DNY      -0.105000
     11 C05         -0.0410     3.4100    -2.0580 ca         1 DNY      -0.120000
     12 C06          0.0070     2.1120    -1.5240 ca         1 DNY      -0.074000
     13 C07         -0.4370     1.8570    -0.2060 ca         1 DNY      -0.108300
     14 C08         -0.3800     0.4290     0.3490 c3         1 DNY       0.285800
     15 C11          3.2560    -0.4300     0.1120 c3         1 DNY      -0.081400
     16 C12          4.5750     0.0660     0.7440 c3         1 DNY       0.168800
     17 C14          7.0310     0.1680     0.6590 c6         1 DNY       0.166300
     18 C16          8.4540    -1.8870     0.1620 c6         1 DNY      -0.074400
     19 C18          5.9130    -2.0060     0.3840 c6         1 DNY       0.166300
     20 C19         -1.5180    -0.4280    -0.1680 cd         1 DNY      -0.095300
     21 C23         -3.5900    -1.2860    -0.3320 ca         1 DNY      -0.056200
     22 C25         -5.8400    -1.0230     0.9100 c          1 DNY       0.722600
     23 C29         -4.5870    -3.1130    -2.0940 ca         1 DNY       0.284900
     24 N13          5.8080    -0.5310     0.1720 n3         1 DNY      -0.714600
     25 N20         -2.8160    -0.3970     0.4030 na         1 DNY      -0.184700
     26 N30         -3.2820    -2.7650    -2.2210 nb         1 DNY      -0.666000
     27 O09          0.8690    -0.1910    -0.0210 os         1 DNY      -0.439000
     28 O26         -5.3600    -0.2090     1.6880 o          1 DNY      -0.721000
     29 O27         -7.0090    -1.3800     0.9630 o          1 DNY      -0.721000
     30 Cl1         -1.5670     2.6910     2.1950 cl         1 DNY      -0.199000
     31 H1           1.9590     0.2440     1.7140 h1         1 DNY       0.022200
     32 H2           2.1580     1.4160     0.3860 h1         1 DNY       0.022200
     33 H3           8.2780    -0.1220    -1.1020 hc         1 DNY       0.044200
     34 H4           9.1940     0.1530     0.3780 hc         1 DNY       0.044200
     35 H5           7.0630    -2.5000    -1.3970 hc         1 DNY       0.044200
     36 H6           7.2340    -3.6750    -0.0960 hc         1 DNY       0.044200
     37 H7          -0.6840    -1.5600    -1.8730 ha         1 DNY       0.201000
     38 H8          -6.4770    -2.9060    -1.0660 ha         1 DNY       0.129000
     39 H9          -1.3930     5.0470     0.6140 ha         1 DNY       0.125000
     40 H10         -0.5780     5.4760    -1.7000 ha         1 DNY       0.108000
     41 H11          0.3080     3.5930    -3.0720 ha         1 DNY       0.110000
     42 H12          0.3900     1.2980    -2.1360 ha         1 DNY       0.132000
     43 H13         -0.4530     0.4450     1.4440 h1         1 DNY       0.055700
     44 H14          3.1090    -1.4920     0.3360 hc         1 DNY       0.060700
     45 H15          3.3180    -0.3260    -0.9770 hc         1 DNY       0.060700
     46 H16          4.6120     1.1560     0.6070 h1         1 DNY       0.027200
     47 H17          4.5380    -0.1170     1.8270 h1         1 DNY       0.027200
     48 H18          7.1320     0.0410     1.7480 h1         1 DNY       0.029700
     49 H19          6.9530     1.2490     0.4670 h1         1 DNY       0.029700
     50 H20          9.3210    -2.2620    -0.3980 hc         1 DNY       0.034700
     51 H21          8.6380    -2.1130     1.2220 hc         1 DNY       0.034700
     52 H22          5.0320    -2.5240    -0.0200 h1         1 DNY       0.029700
     53 H23          5.9570    -2.2320     1.4600 h1         1 DNY       0.029700
     54 H24         -4.9610    -3.8440    -2.8100 h4         1 DNY      -0.011900
     55 H26         -3.1350     0.1650     1.1880 hn         1 DNY       0.394000
@<TRIPOS>BOND
     1     1    15 1   
     2     1    27 1   
     3     1    31 1   
     4     1    32 1   
     5     2    17 1   
     6     2    18 1   
     7     2    33 1   
     8     2    34 1   
     9     3    18 1   
    10     3    19 1   
    11     3    35 1   
    12     3    36 1   
    13     4     5 1   
    14     4    20 2   
    15     4    37 1   
    16     5    21 ar  
    17     5    26 ar  
    18     6     7 ar  
    19     6    21 ar  
    20     6    22 1   
    21     7    23 ar  
    22     7    38 1   
    23     8     9 ar  
    24     8    13 ar  
    25     8    30 1   
    26     9    10 ar  
    27     9    39 1   
    28    10    11 ar  
    29    10    40 1   
    30    11    12 ar  
    31    11    41 1   
    32    12    13 ar  
    33    12    42 1   
    34    13    14 1   
    35    14    20 1   
    36    14    27 1   
    37    14    43 1   
    38    15    16 1   
    39    15    44 1   
    40    15    45 1   
    41    16    24 1   
    42    16    46 1   
    43    16    47 1   
    44    17    24 1   
    45    17    48 1   
    46    17    49 1   
    47    18    50 1   
    48    18    51 1   
    49    19    24 1   
    50    19    52 1   
    51    19    53 1   
    52    20    25 1   
    53    21    25 1   
    54    22    28 1   
    55    22    29 1   
    56    23    26 ar  
    57    23    54 1   
    58    25    55 1   
@<TRIPOS>SUBSTRUCTURE
     1 DNY         1 TEMP              0 ****  ****    0 ROOT
