@<TRIPOS>MOLECULE
DNZ
   50    53     1     0     0
SMALL
No Charge or Current Charge


@<TRIPOS>ATOM
      1 C10          3.3940    -2.8020     0.0800 c3         1 DNZ       0.180500
      2 C13          2.7270    -0.3300     0.3250 ca         1 DNZ      -0.089300
      3 C15          3.6730     1.5740    -0.8830 ca         1 DNZ      -0.105500
      4 C16          3.5800     2.3600     0.2750 ca         1 DNZ       0.121000
      5 C18          3.0670     1.8090     1.4590 ca         1 DNZ      -0.105500
      6 C19          2.6430     0.4690     1.4850 ca         1 DNZ      -0.097500
      7 C21         -4.6570     0.1700     0.3050 ca         1 DNZ       0.050600
      8 C22         -4.3290     1.2920    -0.4020 ca         1 DNZ       0.050600
      9 C24         -5.2490     2.3280    -0.6090 ca         1 DNZ      -0.097500
     10 C25         -6.5430     2.1830    -0.0620 ca         1 DNZ      -0.111500
     11 C26         -6.8830     1.0200     0.6710 ca         1 DNZ      -0.111500
     12 C27         -5.9310    -0.0050     0.8600 ca         1 DNZ      -0.097500
     13 C1          -1.3520     0.2250     0.5910 c6         1 DNZ      -0.118900
     14 C2          -2.5550    -0.0250    -0.3510 c5         1 DNZ       0.394000
     15 C3          -2.1060    -0.9000    -1.5450 c6         1 DNZ      -0.118900
     16 C4          -1.4150    -2.1970    -1.0670 c6         1 DNZ       0.098000
     17 N5          -0.2670    -1.8860    -0.1760 n          1 DNZ      -0.404800
     18 C6          -0.6800    -1.0990     1.0200 c6         1 DNZ       0.098000
     19 O8           1.2870    -2.1620    -1.8340 o          1 DNZ      -0.606100
     20 C9           2.2450    -1.7910     0.3530 c3         1 DNZ      -0.090400
     21 N11          4.5190    -2.5580     1.0010 n8         1 DNZ      -1.007200
     22 C12          2.9520    -4.2770     0.1980 c3         1 DNZ      -0.094100
     23 C14          3.2490     0.2340    -0.8590 ca         1 DNZ      -0.097500
     24 Cl           4.1100     4.0370     0.2440 cl         1 DNZ      -0.200000
     25 O20         -3.6260    -0.7090     0.3880 os         1 DNZ      -0.342600
     26 O23         -3.0490     1.2630    -0.8540 os         1 DNZ      -0.342600
     27 H1           3.7650    -2.6340    -0.9410 h1         1 DNZ       0.042700
     28 H2           4.0720     2.0030    -1.7990 ha         1 DNZ       0.132500
     29 H3           2.9990     2.4190     2.3560 ha         1 DNZ       0.132500
     30 H4           2.2530     0.0550     2.4130 ha         1 DNZ       0.128500
     31 H6          -7.2810     2.9690    -0.2040 ha         1 DNZ       0.118500
     32 H7          -7.8820     0.9160     1.0890 ha         1 DNZ       0.118500
     33 H8          -6.1760    -0.9050     1.4200 ha         1 DNZ       0.132500
     34 H9          -0.6150     0.8620     0.0840 hc         1 DNZ       0.073700
     35 H10         -1.6870     0.7770     1.4790 hc         1 DNZ       0.073700
     36 H11         -2.9740    -1.1470    -2.1690 hc         1 DNZ       0.073700
     37 H12         -1.4140    -0.3290    -2.1790 hc         1 DNZ       0.073700
     38 H13         -2.1380    -2.8170    -0.5160 h1         1 DNZ       0.066950
     39 H14         -1.0910    -2.7880    -1.9360 h1         1 DNZ       0.066950
     40 H15          0.1630    -0.8650     1.6790 h1         1 DNZ       0.066950
     41 H16         -1.3880    -1.6960     1.6120 h1         1 DNZ       0.066950
     42 H17          1.8670    -2.0010     1.3570 hc         1 DNZ       0.080700
     43 H18          5.3630    -3.0060     0.6240 hn         1 DNZ       0.398000
     44 H19          4.7430    -1.5570     0.9730 hn         1 DNZ       0.398000
     45 H21          2.1780    -4.5170    -0.5400 hc         1 DNZ       0.043367
     46 H22          3.7980    -4.9510     0.0200 hc         1 DNZ       0.043367
     47 H23          2.5490    -4.4880     1.1970 hc         1 DNZ       0.043367
     48 H24          3.3260    -0.3620    -1.7660 ha         1 DNZ       0.128500
     49 C7           1.0700    -1.9700    -0.6430 c          1 DNZ       0.610100
     50 H5          -4.9720     3.2150    -1.1740 ha         1 DNZ       0.132500
@<TRIPOS>BOND
     1     1    20 1   
     2     1    21 1   
     3     1    22 1   
     4     1    27 1   
     5     2     6 ar  
     6     2    20 1   
     7     2    23 ar  
     8     3     4 ar  
     9     3    23 ar  
    10     3    28 1   
    11     4     5 ar  
    12     4    24 1   
    13     5     6 ar  
    14     5    29 1   
    15     6    30 1   
    16     7     8 ar  
    17     7    12 ar  
    18     7    25 1   
    19     8     9 ar  
    20     8    26 1   
    21     9    10 ar  
    22     9    50 1   
    23    10    11 ar  
    24    10    31 1   
    25    11    12 ar  
    26    11    32 1   
    27    12    33 1   
    28    13    14 1   
    29    13    18 1   
    30    13    34 1   
    31    13    35 1   
    32    14    15 1   
    33    14    25 1   
    34    14    26 1   
    35    15    16 1   
    36    15    36 1   
    37    15    37 1   
    38    16    17 1   
    39    16    38 1   
    40    16    39 1   
    41    17    18 1   
    42    17    49 1   
    43    18    40 1   
    44    18    41 1   
    45    19    49 2   
    46    20    42 1   
    47    20    49 1   
    48    21    43 1   
    49    21    44 1   
    50    22    45 1   
    51    22    46 1   
    52    22    47 1   
    53    23    48 1   
@<TRIPOS>SUBSTRUCTURE
     1 DNZ         1 TEMP              0 ****  ****    0 ROOT
