@<TRIPOS>MOLECULE
DNZ
   50    53     1     0     0
SMALL
bcc


@<TRIPOS>ATOM
      1 C10          3.4270    -2.7190    -0.1000 c3         1 DNZ       0.180500
      2 C13          2.3770    -0.4590     0.3210 ca         1 DNZ      -0.089300
      3 C15          2.5840     1.6230    -0.8960 ca         1 DNZ      -0.123500
      4 C16          2.7700     2.2950     0.3020 ca         1 DNZ       0.029400
      5 C18          2.7740     1.6140     1.5080 ca         1 DNZ      -0.123500
      6 C19          2.5800     0.2410     1.5060 ca         1 DNZ      -0.115500
      7 C21         -4.4250     0.3410     0.3280 ca         1 DNZ       0.050600
      8 C22         -3.9480     1.4690    -0.3210 ca         1 DNZ       0.050600
      9 C24         -4.7800     2.4850    -0.7220 ca         1 DNZ      -0.115500
     10 C25         -6.1440     2.3300    -0.4410 ca         1 DNZ      -0.129500
     11 C26         -6.6210     1.2030     0.2080 ca         1 DNZ      -0.129500
     12 C27         -5.7590     0.1740     0.6090 ca         1 DNZ      -0.115500
     13 C1          -1.0620     0.0840     0.8910 c6         1 DNZ      -0.118900
     14 C2          -2.2400     0.0490    -0.0620 c5         1 DNZ       0.347600
     15 C3          -1.9520    -0.7990    -1.2920 c6         1 DNZ      -0.118900
     16 C4          -1.4440    -2.1790    -0.8860 c6         1 DNZ       0.098000
     17 N5          -0.2750    -2.0470    -0.0320 n          1 DNZ      -0.471800
     18 C6          -0.5670    -1.3290     1.1970 c6         1 DNZ       0.098000
     19 O8           1.1110    -2.7280    -1.6680 o          1 DNZ      -0.606100
     20 C9           2.1630    -1.9580     0.3420 c3         1 DNZ      -0.090400
     21 N11          4.5410    -2.2650     0.7250 n8         1 DNZ      -0.896800
     22 C12          3.2640    -4.2190     0.1040 c3         1 DNZ      -0.094100
     23 C14          2.3900     0.2500    -0.8780 ca         1 DNZ      -0.115500
     24 CL           3.0030     4.0130     0.2890 cl         1 DNZ      -0.108400
     25 O20         -3.3880    -0.4800     0.6200 os         1 DNZ      -0.319400
     26 O23         -2.6020     1.3760    -0.4510 os         1 DNZ      -0.319400
     27 H1           3.5890    -2.5240    -1.1680 h1         1 DNZ       0.042700
     28 H2           2.5880     2.1600    -1.8350 ha         1 DNZ       0.150500
     29 H3           2.9270     2.1420     2.4400 ha         1 DNZ       0.150500
     30 H4           2.5830    -0.2910     2.4500 ha         1 DNZ       0.146500
     31 H6          -6.8330     3.1070    -0.7430 ha         1 DNZ       0.136500
     32 H7          -7.6800     1.1090     0.4090 ha         1 DNZ       0.136500
     33 H8          -6.1280    -0.7080     1.1150 ha         1 DNZ       0.150500
     34 H9          -0.2570     0.6600     0.4290 hc         1 DNZ       0.073700
     35 H10         -1.3450     0.5920     1.8160 hc         1 DNZ       0.073700
     36 H11         -2.8510    -0.8910    -1.9070 hc         1 DNZ       0.073700
     37 H12         -1.1930    -0.2950    -1.8960 hc         1 DNZ       0.073700
     38 H13         -2.2150    -2.7260    -0.3390 h1         1 DNZ       0.066950
     39 H14         -1.1930    -2.7650    -1.7650 h1         1 DNZ       0.066950
     40 H15          0.3010    -1.2830     1.8460 h1         1 DNZ       0.066950
     41 H16         -1.3290    -1.8860     1.7480 h1         1 DNZ       0.066950
     42 H17          1.9690    -2.2620     1.3740 hc         1 DNZ       0.080700
     43 H18          5.3660    -2.7990     0.4780 hn         1 DNZ       0.342800
     44 H19          4.7680    -1.3030     0.5050 hn         1 DNZ       0.342800
     45 H21          2.4650    -4.6280    -0.5110 hc         1 DNZ       0.043367
     46 H22          4.1830    -4.7440    -0.1630 hc         1 DNZ       0.043367
     47 H23          3.0430    -4.4410     1.1500 hc         1 DNZ       0.043367
     48 H24          2.2430    -0.2640    -1.8200 ha         1 DNZ       0.146500
     49 C7           0.9590    -2.2870    -0.5370 c          1 DNZ       0.677100
     50 H5          -4.4030     3.3640    -1.2260 ha         1 DNZ       0.150500
@<TRIPOS>BOND
     1     1    20 1   
     2     1    21 1   
     3     1    22 1   
     4     1    27 1   
     5     2     6 ar  
     6     2    20 1   
     7     2    23 ar  
     8     3     4 ar  
     9     3    23 ar  
    10     3    28 1   
    11     4     5 ar  
    12     4    24 1   
    13     5     6 ar  
    14     5    29 1   
    15     6    30 1   
    16     7     8 ar  
    17     7    12 ar  
    18     7    25 1   
    19     8     9 ar  
    20     8    26 1   
    21     9    10 ar  
    22     9    50 1   
    23    10    11 ar  
    24    10    31 1   
    25    11    12 ar  
    26    11    32 1   
    27    12    33 1   
    28    13    14 1   
    29    13    18 1   
    30    13    34 1   
    31    13    35 1   
    32    14    15 1   
    33    14    25 1   
    34    14    26 1   
    35    15    16 1   
    36    15    36 1   
    37    15    37 1   
    38    16    17 1   
    39    16    38 1   
    40    16    39 1   
    41    17    18 1   
    42    17    49 1   
    43    18    40 1   
    44    18    41 1   
    45    19    49 2   
    46    20    42 1   
    47    20    49 1   
    48    21    43 1   
    49    21    44 1   
    50    22    45 1   
    51    22    46 1   
    52    22    47 1   
    53    23    48 1   
@<TRIPOS>SUBSTRUCTURE
     1 DNZ         1 TEMP              0 ****  ****    0 ROOT
