@<TRIPOS>MOLECULE
DO0
   33    35     1     0     0
SMALL
No Charge or Current Charge


@<TRIPOS>ATOM
      1 C7         -55.4340    -5.0450   -20.0320 ca         1 DO0      -0.094600
      2 C9         -55.2010    -7.1430   -21.1990 ca         1 DO0      -0.057000
      3 N1         -54.7880    -0.7490   -16.7150 ns         1 DO0      -0.475500
      4 C2         -57.8610    -1.4960   -17.8260 c3         1 DO0      -0.096100
      5 C10        -56.5990    -7.1530   -21.4350 ca         1 DO0      -0.139000
      6 C4         -54.7570     0.4660   -17.3330 c          1 DO0       0.582000
      7 C6         -55.9630    -0.6920   -19.2900 c6         1 DO0      -0.087400
      8 N          -56.3240    -3.1370   -19.0770 n          1 DO0      -0.383400
      9 C          -55.1030    -3.8070   -19.2710 c          1 DO0       0.586600
     10 O          -53.9920    -3.4400   -18.9150 o          1 DO0      -0.479000
     11 C1         -56.4110    -1.8320   -18.3190 c6         1 DO0       0.068400
     12 C11        -57.4110    -6.1020   -20.9660 ca         1 DO0       0.223100
     13 C12        -56.7990    -5.0610   -20.2660 ca         1 DO0      -0.273600
     14 C13        -57.3920    -3.8430   -19.6660 c          1 DO0       0.614600
     15 C3         -55.5510    -1.8490   -17.0030 c          1 DO0       0.581000
     16 C5         -55.6470     0.6410   -18.5660 c6         1 DO0      -0.161400
     17 C8         -54.6030    -6.0780   -20.4900 ca         1 DO0      -0.080000
     18 O2         -55.5570    -2.8010   -16.2360 o          1 DO0      -0.502000
     19 O3         -58.7530    -6.1020   -21.1880 oh         1 DO0      -0.518100
     20 H1         -54.5840    -7.9590   -21.5680 ha         1 DO0       0.126000
     21 H2         -54.2100    -0.8290   -15.8930 hn         1 DO0       0.332500
     22 H3         -58.2950    -2.3350   -17.2680 hc         1 DO0       0.060700
     23 H4         -57.8710    -0.6320   -17.1510 hc         1 DO0       0.060700
     24 H5         -58.5370    -1.2530   -18.6540 hc         1 DO0       0.060700
     25 H6         -57.0490    -7.9760   -21.9830 ha         1 DO0       0.138000
     26 H7         -55.0520    -1.0050   -19.8190 hc         1 DO0       0.068700
     27 H8         -56.7160    -0.5310   -20.0750 hc         1 DO0       0.068700
     28 H9         -55.2120     1.3990   -19.2310 hc         1 DO0       0.081700
     29 H10        -56.5920     1.0610   -18.1990 hc         1 DO0       0.081700
     30 H11        -53.5300    -6.0590   -20.3050 ha         1 DO0       0.144000
     31 H12        -59.1170    -5.2820   -20.7850 ho         1 DO0       0.501000
     32 O4         -58.5760    -3.5490   -19.7170 o          1 DO0      -0.520000
     33 O1         -54.0120     1.3480   -16.9420 o          1 DO0      -0.511000
@<TRIPOS>BOND
     1     1     9 1   
     2     1    13 ar  
     3     1    17 ar  
     4     2     5 ar  
     5     2    17 ar  
     6     2    20 1   
     7     3     6 1   
     8     3    15 1   
     9     3    21 1   
    10     4    11 1   
    11     4    22 1   
    12     4    23 1   
    13     4    24 1   
    14     5    12 ar  
    15     5    25 1   
    16     6    16 1   
    17     6    33 2   
    18     7    11 1   
    19     7    16 1   
    20     7    26 1   
    21     7    27 1   
    22     8     9 1   
    23     8    11 1   
    24     8    14 1   
    25     9    10 2   
    26    11    15 1   
    27    12    13 ar  
    28    12    19 1   
    29    13    14 1   
    30    14    32 2   
    31    15    18 2   
    32    16    28 1   
    33    16    29 1   
    34    17    30 1   
    35    19    31 1   
@<TRIPOS>SUBSTRUCTURE
     1 DO0         1 TEMP              0 ****  ****    0 ROOT
