@<TRIPOS>MOLECULE
DO0
   33    35     1     0     0
SMALL
abcg2


@<TRIPOS>ATOM
      1 C7         -55.4480    -4.9930   -20.0050 ca         1 DO0      -0.094600
      2 C9         -55.1970    -7.0360   -21.1450 ca         1 DO0      -0.057000
      3 N1         -54.8160    -0.8350   -16.7670 ns         1 DO0      -0.475500
      4 C2         -57.8270    -1.4840   -17.8180 c3         1 DO0      -0.096100
      5 C10        -56.5600    -7.0820   -21.3820 ca         1 DO0      -0.139000
      6 C4         -54.7550     0.3960   -17.3940 c          1 DO0       0.582000
      7 C6         -55.9280    -0.7340   -19.3090 c6         1 DO0      -0.087400
      8 N          -56.3820    -3.1190   -19.0330 n          1 DO0      -0.383400
      9 C          -55.1580    -3.7530   -19.2560 c          1 DO0       0.586600
     10 O          -54.0890    -3.3280   -18.9010 o          1 DO0      -0.479000
     11 C1         -56.4300    -1.8240   -18.3580 c6         1 DO0       0.068400
     12 C11        -57.4100    -6.0620   -20.9280 ca         1 DO0       0.223100
     13 C12        -56.8140    -5.0220   -20.2320 ca         1 DO0      -0.273600
     14 C13        -57.4200    -3.8180   -19.6450 c          1 DO0       0.614600
     15 C3         -55.5570    -1.9410   -17.1030 c          1 DO0       0.581000
     16 C5         -55.6560     0.5720   -18.5820 c6         1 DO0      -0.161400
     17 C8         -54.6030    -5.9790   -20.4470 ca         1 DO0      -0.080000
     18 O2         -55.5790    -2.9150   -16.3920 o          1 DO0      -0.502000
     19 O3         -58.7140    -6.1480   -21.1860 oh         1 DO0      -0.518100
     20 H1         -54.5800    -7.8430   -21.5150 ha         1 DO0       0.126000
     21 H2         -54.2630    -0.9240   -15.9210 hn         1 DO0       0.332500
     22 H3         -58.2430    -2.3060   -17.2390 hc         1 DO0       0.060700
     23 H4         -57.7580    -0.6220   -17.1540 hc         1 DO0       0.060700
     24 H5         -58.5130    -1.2260   -18.6190 hc         1 DO0       0.060700
     25 H6         -56.9850    -7.9150   -21.9280 ha         1 DO0       0.138000
     26 H7         -55.0140    -1.0580   -19.8070 hc         1 DO0       0.068700
     27 H8         -56.6770    -0.5790   -20.0860 hc         1 DO0       0.068700
     28 H9         -55.1970     1.2960   -19.2530 hc         1 DO0       0.081700
     29 H10        -56.5830     1.0300   -18.2240 hc         1 DO0       0.081700
     30 H11        -53.5360    -5.9490   -20.2690 ha         1 DO0       0.144000
     31 H12        -59.1880    -5.3830   -20.8280 ho         1 DO0       0.501000
     32 O4         -58.5840    -3.5020   -19.7020 o          1 DO0      -0.520000
     33 O1         -54.0350     1.2610   -16.9570 o          1 DO0      -0.511000
@<TRIPOS>BOND
     1     1     9 1   
     2     1    13 ar  
     3     1    17 ar  
     4     2     5 ar  
     5     2    17 ar  
     6     2    20 1   
     7     3     6 1   
     8     3    15 1   
     9     3    21 1   
    10     4    11 1   
    11     4    22 1   
    12     4    23 1   
    13     4    24 1   
    14     5    12 ar  
    15     5    25 1   
    16     6    16 1   
    17     6    33 2   
    18     7    11 1   
    19     7    16 1   
    20     7    26 1   
    21     7    27 1   
    22     8     9 1   
    23     8    11 1   
    24     8    14 1   
    25     9    10 2   
    26    11    15 1   
    27    12    13 ar  
    28    12    19 1   
    29    13    14 1   
    30    14    32 2   
    31    15    18 2   
    32    16    28 1   
    33    16    29 1   
    34    17    30 1   
    35    19    31 1   
@<TRIPOS>SUBSTRUCTURE
     1 DO0         1 TEMP              0 ****  ****    0 ROOT
