@<TRIPOS>MOLECULE
DO1
   52    55     1     0     0
SMALL
abcg2


@<TRIPOS>ATOM
      1 C10         -0.0410     3.9160     1.7760 ca         1 DO1      -0.120000
      2 C13         -0.8660     3.0510    -0.7080 ca         1 DO1       0.133000
      3 C17          4.0290     0.8030    -0.0450 c3         1 DO1       0.174800
      4 C20          4.7730    -2.5710    -1.5250 c6         1 DO1      -0.076400
      5 C21          5.8790    -3.0160    -0.5780 c6         1 DO1      -0.073400
      6 C24          5.6010    -2.4840     0.8220 c6         1 DO1      -0.076400
      7 C26         -0.2920    -1.1720     1.0870 cc         1 DO1      -0.334800
      8 C03         -3.7890    -1.7370     0.3710 ca         1 DO1      -0.109600
      9 C04         -2.4780    -1.2720     0.4230 ca         1 DO1      -0.055200
     10 C06         -0.5420    -0.2080     0.1500 cd         1 DO1      -0.094300
     11 C07          0.3840     0.8300    -0.4070 c3         1 DO1       0.282800
     12 C08         -0.0580     2.2140     0.0520 ca         1 DO1      -0.107300
     13 C09          0.3410     2.6710     1.3060 ca         1 DO1      -0.077000
     14 C11         -0.8420     4.7360     0.9920 ca         1 DO1      -0.106000
     15 C12         -1.2600     4.3030    -0.2550 ca         1 DO1      -0.107000
     16 C19          4.5820    -1.0630    -1.4670 c6         1 DO1       0.172300
     17 C25          5.3870    -0.9790     0.7880 c6         1 DO1       0.172300
     18 C27         -1.5230    -1.8700     1.2800 ca         1 DO1       0.294800
     19 C29         -3.0580    -3.3380     2.0370 ca         1 DO1       0.282900
     20 C30         -4.0580    -2.8030     1.2170 ca         1 DO1      -0.144000
     21 N05         -1.8490    -0.2660    -0.2430 na         1 DO1      -0.186700
     22 N18          4.3090    -0.6140    -0.1140 n3         1 DO1      -0.699600
     23 N28         -1.8100    -2.8970     2.0830 nb         1 DO1      -0.666000
     24 O01         -4.4350    -0.1770    -1.2600 o          1 DO1      -0.722000
     25 O15          1.6660     0.5170     0.0410 os         1 DO1      -0.420000
     26 O31         -5.9730    -1.6090    -0.5090 o          1 DO1      -0.722000
     27 CL1         -1.4320     2.5470    -2.2770 cl         1 DO1      -0.198000
     28 H1           0.2880     4.2460     2.7520 ha         1 DO1       0.108000
     29 H2           4.8070     1.4110    -0.5410 h1         1 DO1       0.030200
     30 H3           4.0380     1.1010     1.0080 h1         1 DO1       0.030200
     31 H5           3.8340    -3.0590    -1.2470 hc         1 DO1       0.048950
     32 H6           5.9680    -4.1050    -0.5700 hc         1 DO1       0.031700
     33 H7           6.8400    -2.6250    -0.9300 hc         1 DO1       0.031700
     34 H8           4.7060    -2.9660     1.2280 hc         1 DO1       0.048950
     35 H9           6.4250    -2.7160     1.5000 hc         1 DO1       0.048950
     36 H10          0.6490    -1.3650     1.5750 ha         1 DO1       0.206000
     37 H11          0.3420     0.7880    -1.5060 h1         1 DO1       0.054700
     38 H12          0.9680     2.0370     1.9200 ha         1 DO1       0.131000
     39 H13         -1.1460     5.7120     1.3460 ha         1 DO1       0.108000
     40 H14         -1.8890     4.9300    -0.8720 ha         1 DO1       0.125000
     41 H17          5.4790    -0.5630    -1.8780 h1         1 DO1       0.023700
     42 H18          3.7490    -0.7840    -2.1160 h1         1 DO1       0.023700
     43 H19          5.1380    -0.6170     1.7900 h1         1 DO1       0.023700
     44 H20          6.3370    -0.4880     0.5040 h1         1 DO1       0.023700
     45 H21         -3.2970    -4.1730     2.6870 h4         1 DO1      -0.012900
     46 H22         -5.0510    -3.2310     1.2460 ha         1 DO1       0.128000
     47 H23         -2.3230     0.2980    -0.9330 hn         1 DO1       0.393000
     48 C16          2.6950     1.2080    -0.6340 c3         1 DO1       0.161600
     49 H4           4.9970    -2.8660    -2.5520 hc         1 DO1       0.048950
     50 H15          2.5910     2.2940    -0.5160 h1         1 DO1       0.022200
     51 H16          2.6410     1.0050    -1.7110 h1         1 DO1       0.022200
     52 C02         -4.8320    -1.1230    -0.5460 c          1 DO1       0.721600
@<TRIPOS>BOND
     1     1    13 ar  
     2     1    14 ar  
     3     1    28 1   
     4     2    12 ar  
     5     2    15 ar  
     6     2    27 1   
     7     3    22 1   
     8     3    29 1   
     9     3    30 1   
    10     3    48 1   
    11     4     5 1   
    12     4    16 1   
    13     4    31 1   
    14     4    49 1   
    15     5     6 1   
    16     5    32 1   
    17     5    33 1   
    18     6    17 1   
    19     6    34 1   
    20     6    35 1   
    21     7    10 2   
    22     7    18 1   
    23     7    36 1   
    24     8     9 ar  
    25     8    20 ar  
    26     8    52 1   
    27     9    18 ar  
    28     9    21 1   
    29    10    11 1   
    30    10    21 1   
    31    11    12 1   
    32    11    25 1   
    33    11    37 1   
    34    12    13 ar  
    35    13    38 1   
    36    14    15 ar  
    37    14    39 1   
    38    15    40 1   
    39    16    22 1   
    40    16    41 1   
    41    16    42 1   
    42    17    22 1   
    43    17    43 1   
    44    17    44 1   
    45    18    23 ar  
    46    19    20 ar  
    47    19    23 ar  
    48    19    45 1   
    49    20    46 1   
    50    21    47 1   
    51    24    52 1   
    52    25    48 1   
    53    26    52 1   
    54    48    50 1   
    55    48    51 1   
@<TRIPOS>SUBSTRUCTURE
     1 DO1         1 TEMP              0 ****  ****    0 ROOT
