@<TRIPOS>MOLECULE
DO1
   52    55     1     0     0
SMALL
No Charge or Current Charge


@<TRIPOS>ATOM
      1 C10         -0.1520     4.0220     1.8320 ca         1 DO1      -0.120000
      2 C13         -0.6920     3.1870    -0.7990 ca         1 DO1       0.133000
      3 C17          4.0580     0.7940     0.1280 c3         1 DO1       0.174800
      4 C20          4.7360    -2.6090    -1.5800 c6         1 DO1      -0.076400
      5 C21          6.0020    -3.0300    -0.7990 c6         1 DO1      -0.073400
      6 C24          5.9090    -2.5380     0.6630 c6         1 DO1      -0.076400
      7 C26         -0.5260    -1.0430     1.3020 cc         1 DO1      -0.334800
      8 C03         -3.8740    -1.8900     0.2960 ca         1 DO1      -0.109600
      9 C04         -2.5810    -1.3400     0.4340 ca         1 DO1      -0.055200
     10 C06         -0.6750    -0.1620     0.2330 cd         1 DO1      -0.094300
     11 C07          0.3030     0.8610    -0.3100 c3         1 DO1       0.282800
     12 C08         -0.0710     2.2900     0.1020 ca         1 DO1      -0.107300
     13 C09          0.1840     2.7200     1.4240 ca         1 DO1      -0.077000
     14 C11         -0.7560     4.9080     0.9270 ca         1 DO1      -0.106000
     15 C12         -1.0270     4.4880    -0.3850 ca         1 DO1      -0.107000
     16 C19          4.4850    -1.0850    -1.4580 c6         1 DO1       0.172300
     17 C25          5.6280    -1.0160     0.7200 c6         1 DO1       0.172300
     18 C27         -1.7360    -1.7830     1.4190 ca         1 DO1       0.294800
     19 C29         -3.2460    -3.2900     2.2200 ca         1 DO1       0.282900
     20 C30         -4.1920    -2.9040     1.2400 ca         1 DO1      -0.144000
     21 N05         -1.9700    -0.3430    -0.3170 na         1 DO1      -0.186700
     22 N18          4.3970    -0.6510    -0.0330 n3         1 DO1      -0.699600
     23 N28         -2.0110    -2.7380     2.3240 nb         1 DO1      -0.666000
     24 O01         -4.5320    -0.5700    -1.5600 o          1 DO1      -0.722000
     25 O15          1.6230     0.5450     0.1740 os         1 DO1      -0.420000
     26 O31         -5.9600    -1.9860    -0.8050 o          1 DO1      -0.722000
     27 Cl1         -1.0840     2.7170    -2.4540 cl         1 DO1      -0.198000
     28 H1           0.0530     4.3410     2.8510 ha         1 DO1       0.108000
     29 H2           4.8490     1.4040    -0.3290 h1         1 DO1       0.030200
     30 H3           4.0490     1.0460     1.1970 h1         1 DO1       0.030200
     31 H5           3.8640    -3.1540    -1.1950 hc         1 DO1       0.048950
     32 H6           6.1190    -4.1220    -0.8260 hc         1 DO1       0.031700
     33 H7           6.8940    -2.6020    -1.2790 hc         1 DO1       0.031700
     34 H8           5.1080    -3.0770     1.1870 hc         1 DO1       0.048950
     35 H9           6.8410    -2.7650     1.1960 hc         1 DO1       0.048950
     36 H10          0.3560    -1.1390     1.9260 ha         1 DO1       0.206000
     37 H11          0.2990     0.7660    -1.4030 h1         1 DO1       0.054700
     38 H12          0.6460     2.0400     2.1370 ha         1 DO1       0.131000
     39 H13         -1.0180     5.9160     1.2430 ha         1 DO1       0.108000
     40 H14         -1.5030     5.1710    -1.0840 ha         1 DO1       0.125000
     41 H17          5.2960    -0.5450    -1.9690 h1         1 DO1       0.023700
     42 H18          3.5530    -0.8530    -1.9930 h1         1 DO1       0.023700
     43 H19          5.5310    -0.7180     1.7740 h1         1 DO1       0.023700
     44 H20          6.4960    -0.4770     0.3110 h1         1 DO1       0.023700
     45 H21         -3.4870    -4.0660     2.9440 h4         1 DO1      -0.012900
     46 H22         -5.1610    -3.3940     1.2220 ha         1 DO1       0.128000
     47 H23         -2.3870     0.1540    -1.1000 hn         1 DO1       0.393000
     48 C16          2.6990     1.2660    -0.4640 c3         1 DO1       0.161600
     49 H4           4.8380    -2.8860    -2.6380 hc         1 DO1       0.048950
     50 H15          2.5990     2.3440    -0.2860 h1         1 DO1       0.022200
     51 H16          2.6860     1.1050    -1.5490 h1         1 DO1       0.022200
     52 C02         -4.8630    -1.4460    -0.7720 c          1 DO1       0.721600
@<TRIPOS>BOND
     1     1    13 ar  
     2     1    14 ar  
     3     1    28 1   
     4     2    12 ar  
     5     2    15 ar  
     6     2    27 1   
     7     3    22 1   
     8     3    29 1   
     9     3    30 1   
    10     3    48 1   
    11     4     5 1   
    12     4    16 1   
    13     4    31 1   
    14     4    49 1   
    15     5     6 1   
    16     5    32 1   
    17     5    33 1   
    18     6    17 1   
    19     6    34 1   
    20     6    35 1   
    21     7    10 2   
    22     7    18 1   
    23     7    36 1   
    24     8     9 ar  
    25     8    20 ar  
    26     8    52 1   
    27     9    18 ar  
    28     9    21 1   
    29    10    11 1   
    30    10    21 1   
    31    11    12 1   
    32    11    25 1   
    33    11    37 1   
    34    12    13 ar  
    35    13    38 1   
    36    14    15 ar  
    37    14    39 1   
    38    15    40 1   
    39    16    22 1   
    40    16    41 1   
    41    16    42 1   
    42    17    22 1   
    43    17    43 1   
    44    17    44 1   
    45    18    23 ar  
    46    19    20 ar  
    47    19    23 ar  
    48    19    45 1   
    49    20    46 1   
    50    21    47 1   
    51    24    52 1   
    52    25    48 1   
    53    26    52 1   
    54    48    50 1   
    55    48    51 1   
@<TRIPOS>SUBSTRUCTURE
     1 DO1         1 TEMP              0 ****  ****    0 ROOT
