@<TRIPOS>MOLECULE
DO2
   22    21     1     0     0
SMALL
bcc


@<TRIPOS>ATOM
      1 C           40.7590   127.2040    85.6200 c          1 DO2       0.928600
      2 N           38.4990   126.2900    85.1740 n8         1 DO2      -0.884800
      3 OXT         41.1210   126.4220    84.7200 o          1 DO2      -0.833300
      4 CA          39.2410   127.2950    85.9200 c3         1 DO2       0.024500
      5 CB          38.9310   127.1170    87.4140 c3         1 DO2      -0.039400
      6 CD          38.7450   128.2500    89.7240 c3         1 DO2       0.227600
      7 CE          39.6150   127.2020    90.4200 c          1 DO2       0.577900
      8 CG          39.1560   128.3690    88.2530 c3         1 DO2      -0.097400
      9 OE1         40.4530   127.4770    91.2370 o          1 DO2      -0.524100
     10 O           41.5000   127.9440    86.3010 o          1 DO2      -0.833300
     11 H           37.5280   126.5660    85.1100 hn         1 DO2       0.323800
     12 H2          38.8560   126.2480    84.2290 hn         1 DO2       0.323800
     13 HA          38.9370   128.3210    85.6440 h1         1 DO2      -0.005300
     14 HB          37.8800   126.8230    87.4990 hc         1 DO2       0.025700
     15 HBA         39.5100   126.2700    87.7970 hc         1 DO2       0.025700
     16 O4          38.9250   129.5080    90.2860 oh         1 DO2      -0.615300
     17 O5          37.4430   127.7650    89.8930 oh         1 DO2      -0.615300
     18 HE          39.4230   126.1590    90.1170 h4         1 DO2       0.011200
     19 HG          40.2030   128.6660    88.1980 hc         1 DO2       0.077200
     20 HGA         38.5770   129.1950    87.8220 hc         1 DO2       0.077200
     21 H10         38.8370   129.4540    91.2460 ho         1 DO2       0.412500
     22 H11         36.8510   128.2250    89.2860 ho         1 DO2       0.412500
@<TRIPOS>BOND
     1     1     3 1   
     2     1     4 1   
     3     1    10 1   
     4     2     4 1   
     5     2    11 1   
     6     2    12 1   
     7     4     5 1   
     8     4    13 1   
     9     5     8 1   
    10     5    14 1   
    11     5    15 1   
    12     6     7 1   
    13     6     8 1   
    14     6    16 1   
    15     6    17 1   
    16     7     9 2   
    17     7    18 1   
    18     8    19 1   
    19     8    20 1   
    20    16    21 1   
    21    17    22 1   
@<TRIPOS>SUBSTRUCTURE
     1 DO2         1 TEMP              0 ****  ****    0 ROOT
