@<TRIPOS>MOLECULE
DO2
   22    21     1     0     0
SMALL
No Charge or Current Charge


@<TRIPOS>ATOM
      1 C           40.7660   127.5400    85.6420 c          1 DO2       0.928600
      2 N           38.5710   126.1880    85.0470 n8         1 DO2      -0.884800
      3 OXT         41.5850   126.8310    86.2230 o          1 DO2      -0.833300
      4 CA          39.2040   127.2870    85.8660 c3         1 DO2       0.024500
      5 CB          38.8380   127.0900    87.3650 c3         1 DO2      -0.039400
      6 CD          38.8030   128.1810    89.7650 c3         1 DO2       0.227600
      7 CE          39.4980   126.9580    90.4930 c          1 DO2       0.577900
      8 CG          39.2230   128.2950    88.2710 c3         1 DO2      -0.097400
      9 OE1         40.1000   127.0480    91.5640 o          1 DO2      -0.524100
     10 O           41.1070   128.4270    84.8650 o          1 DO2      -0.833300
     11 H           37.5590   126.1870    85.2030 hn         1 DO2       0.323800
     12 H2          38.6780   126.4060    84.0500 hn         1 DO2       0.323800
     13 HA          38.6970   128.2060    85.5430 h1         1 DO2      -0.005300
     14 HB          37.7570   126.9190    87.4430 hc         1 DO2       0.025700
     15 HBA         39.3270   126.1800    87.7320 hc         1 DO2       0.025700
     16 O4          39.1250   129.4180    90.4020 oh         1 DO2      -0.615300
     17 O5          37.3830   128.0930    89.8540 oh         1 DO2      -0.615300
     18 HE          39.3970   125.9740    89.9850 h4         1 DO2       0.011200
     19 HG          40.3090   128.4400    88.2340 hc         1 DO2       0.077200
     20 HGA         38.7820   129.2060    87.8460 hc         1 DO2       0.077200
     21 H10         39.2560   129.2100    91.3530 ho         1 DO2       0.412500
     22 H11         37.0260   128.6880    89.1630 ho         1 DO2       0.412500
@<TRIPOS>BOND
     1     1     3 1   
     2     1     4 1   
     3     1    10 1   
     4     2     4 1   
     5     2    11 1   
     6     2    12 1   
     7     4     5 1   
     8     4    13 1   
     9     5     8 1   
    10     5    14 1   
    11     5    15 1   
    12     6     7 1   
    13     6     8 1   
    14     6    16 1   
    15     6    17 1   
    16     7     9 2   
    17     7    18 1   
    18     8    19 1   
    19     8    20 1   
    20    16    21 1   
    21    17    22 1   
@<TRIPOS>SUBSTRUCTURE
     1 DO2         1 TEMP              0 ****  ****    0 ROOT
