@<TRIPOS>MOLECULE
DO3
   57    57     1     0     0
SMALL
bcc


@<TRIPOS>ATOM
      1 N1          -0.6230    -0.6440     2.1560 n3         1 DO3      -0.698600
      2 N2          -1.3100     1.7380     0.0600 n3         1 DO3      -0.674600
      3 N3           0.0600    -0.5790    -2.5890 n3         1 DO3      -0.698600
      4 N4           1.8400    -1.6140     0.4380 n3         1 DO3      -0.756600
      5 O1          -3.9670    -1.7340     2.1420 o          1 DO3      -0.838550
      6 O3          -0.3470     5.1420     0.8620 o          1 DO3      -0.862300
      7 O5          -0.9430     0.1540    -5.9800 o          1 DO3      -0.838550
      8 O7           3.5540     0.4570     0.8100 oh         1 DO3      -0.617800
      9 C1          -0.9580     0.7510     2.3860 c3         1 DO3       0.171800
     10 C2          -1.8960     1.3860     1.3470 c3         1 DO3       0.161300
     11 C3          -0.6620     0.5830    -0.5380 c3         1 DO3       0.161300
     12 C4          -0.4110     0.6830    -2.0330 c3         1 DO3       0.171800
     13 C5           1.2750    -1.0520    -1.9340 c3         1 DO3       0.187800
     14 C6           1.0200    -1.9660    -0.7130 c3         1 DO3       0.181300
     15 C7           1.3450    -2.1100     1.7210 c3         1 DO3       0.181300
     16 C8           0.7070    -1.0280     2.5920 c3         1 DO3       0.187800
     17 C9          -2.8180    -1.8280     1.6600 c          1 DO3       0.926100
     18 C10         -1.6410    -1.5610     2.6220 c3         1 DO3       0.048800
     19 C11         -1.1210     4.2470     0.4490 c          1 DO3       0.924600
     20 C12         -0.4400     2.8890     0.1270 c3         1 DO3       0.031800
     21 C13         -1.0830    -0.3240    -4.8340 c          1 DO3       0.926100
     22 C14          0.2230    -0.4560    -4.0220 c3         1 DO3       0.048800
     23 C15          4.0750    -0.8350     1.0430 c3         1 DO3       0.145100
     24 C16          3.2590    -1.8510     0.2410 c3         1 DO3       0.141800
     25 C17          5.5420    -0.8730     0.6680 c3         1 DO3      -0.087100
     26 O2          -2.5330    -2.1760     0.4970 o          1 DO3      -0.838550
     27 O4          -2.3410     4.3580     0.2360 o          1 DO3      -0.862300
     28 O6          -2.1390    -0.7410    -4.3270 o          1 DO3      -0.838550
     29 HO7          2.6030     0.3020     0.6760 ho         1 DO3       0.463000
     30 HC11        -0.0320     1.3320     2.4010 h1         1 DO3       0.018450
     31 HC12        -1.4130     0.8950     3.3820 h1         1 DO3       0.018450
     32 HC21        -2.3080     2.2960     1.7860 h1         1 DO3       0.058950
     33 HC22        -2.7500     0.7260     1.1710 h1         1 DO3       0.058950
     34 HC31        -1.3060    -0.2780    -0.3600 h1         1 DO3       0.058950
     35 HC32         0.2800     0.3570    -0.0230 h1         1 DO3       0.058950
     36 HC41         0.3190     1.4830    -2.2560 h1         1 DO3       0.018450
     37 HC42        -1.3430     0.9570    -2.5300 h1         1 DO3       0.018450
     38 HC51         1.9180    -0.2100    -1.6270 h1         1 DO3       0.000200
     39 HC52         1.8590    -1.6090    -2.6700 h1         1 DO3       0.000200
     40 HC61         1.1850    -3.0140    -1.0110 h1         1 DO3       0.041450
     41 HC62        -0.0230    -1.9010    -0.4110 h1         1 DO3       0.041450
     42 HC71         0.6340    -2.9310     1.5710 h1         1 DO3       0.041450
     43 HC72         2.1770    -2.5410     2.2860 h1         1 DO3       0.041450
     44 HC81         1.3580    -0.1520     2.5610 h1         1 DO3       0.000200
     45 HC82         0.7150    -1.3740     3.6400 h1         1 DO3       0.000200
     46 H101        -1.1730    -2.5380     2.7850 h1         1 DO3      -0.011800
     47 H102        -2.0330    -1.2470     3.6040 h1         1 DO3      -0.011800
     48 H121         0.3970     2.7540     0.8330 h1         1 DO3       0.002200
     49 H122         0.0290     3.0110    -0.8550 h1         1 DO3       0.002200
     50 H141         0.8930     0.3770    -4.2960 h1         1 DO3      -0.011800
     51 H142         0.7160    -1.3630    -4.3920 h1         1 DO3      -0.011800
     52 HA           3.9880    -1.0870     2.1130 h1         1 DO3       0.010700
     53 H161         3.4970    -1.7190    -0.8180 h1         1 DO3       0.020200
     54 H162         3.5660    -2.8730     0.5070 h1         1 DO3       0.020200
     55 H171         6.1190    -0.1500     1.2470 hc         1 DO3       0.022367
     56 H172         5.9570    -1.8610     0.8670 hc         1 DO3       0.022367
     57 H173         5.6830    -0.6530    -0.3920 hc         1 DO3       0.022367
@<TRIPOS>BOND
     1     1     9 1   
     2     1    16 1   
     3     1    18 1   
     4     2    10 1   
     5     2    11 1   
     6     2    20 1   
     7     3    12 1   
     8     3    13 1   
     9     3    22 1   
    10     4    14 1   
    11     4    15 1   
    12     4    24 1   
    13     5    17 1   
    14     6    19 1   
    15     7    21 1   
    16     8    23 1   
    17     8    29 1   
    18     9    10 1   
    19     9    30 1   
    20     9    31 1   
    21    10    32 1   
    22    10    33 1   
    23    11    12 1   
    24    11    34 1   
    25    11    35 1   
    26    12    36 1   
    27    12    37 1   
    28    13    14 1   
    29    13    38 1   
    30    13    39 1   
    31    14    40 1   
    32    14    41 1   
    33    15    16 1   
    34    15    42 1   
    35    15    43 1   
    36    16    44 1   
    37    16    45 1   
    38    17    18 1   
    39    17    26 1   
    40    18    46 1   
    41    18    47 1   
    42    19    20 1   
    43    19    27 1   
    44    20    48 1   
    45    20    49 1   
    46    21    22 1   
    47    21    28 1   
    48    22    50 1   
    49    22    51 1   
    50    23    24 1   
    51    23    25 1   
    52    23    52 1   
    53    24    53 1   
    54    24    54 1   
    55    25    55 1   
    56    25    56 1   
    57    25    57 1   
@<TRIPOS>SUBSTRUCTURE
     1 DO3         1 TEMP              0 ****  ****    0 ROOT
