@<TRIPOS>MOLECULE
DO3
   57    57     1     0     0
SMALL
No Charge or Current Charge


@<TRIPOS>ATOM
      1 N1          -0.6700    -0.4680     2.1360 n3         1 DO3      -0.698600
      2 N2          -1.8480     1.7440    -0.0570 n3         1 DO3      -0.674600
      3 N3           0.1530    -0.4870    -2.6350 n3         1 DO3      -0.698600
      4 N4           2.1800    -1.4320     0.5460 n3         1 DO3      -0.756600
      5 O1          -3.8590    -1.3920     2.9350 o          1 DO3      -0.733250
      6 O3          -1.6870     4.6930     1.6440 o          1 DO3      -0.757000
      7 O5          -0.8870     0.9970    -5.5580 o          1 DO3      -0.733250
      8 O7           4.4050    -0.1610     1.1090 oh         1 DO3      -0.680000
      9 C1          -1.3050     0.8750     2.3630 c3         1 DO3       0.171800
     10 C2          -2.3660     1.3410     1.2970 c3         1 DO3       0.161300
     11 C3          -1.0310     0.6490    -0.6460 c3         1 DO3       0.161300
     12 C4          -0.5960     0.7170    -2.1330 c3         1 DO3       0.171800
     13 C5           1.3680    -0.8430    -1.8270 c3         1 DO3       0.187800
     14 C6           1.1470    -1.6700    -0.5080 c3         1 DO3       0.181300
     15 C7           1.6720    -1.6550     1.9470 c3         1 DO3       0.181300
     16 C8           0.7660    -0.5180     2.5460 c3         1 DO3       0.187800
     17 C9          -2.9730    -1.8180     2.2030 c          1 DO3       0.715500
     18 C10         -1.4740    -1.6320     2.6530 c3         1 DO3       0.048800
     19 C11         -1.8900     4.3370     0.4890 c          1 DO3       0.714000
     20 C12         -1.1310     3.0670    -0.0530 c3         1 DO3       0.031800
     21 C13         -0.6980    -0.1330    -5.1230 c          1 DO3       0.715500
     22 C14          0.4780    -0.3590    -4.0970 c3         1 DO3       0.048800
     23 C15          4.6720    -1.5550     1.0050 c3         1 DO3       0.168300
     24 C16          3.4570    -2.1520     0.2450 c3         1 DO3       0.141800
     25 C17          6.0240    -1.7930     0.3050 c3         1 DO3      -0.087100
     26 O2          -3.2040    -2.4220     1.1620 o          1 DO3      -0.733250
     27 O4          -2.6470     4.9370    -0.2640 o          1 DO3      -0.757000
     28 O6          -1.3660    -1.1000    -5.4750 o          1 DO3      -0.733250
     29 HO7          3.4270    -0.1630     0.9180 ho         1 DO3       0.502000
     30 HC11        -0.5320     1.6540     2.4060 h1         1 DO3       0.018450
     31 HC12        -1.7870     0.8790     3.3500 h1         1 DO3       0.018450
     32 HC21        -2.9250     2.1780     1.7370 h1         1 DO3       0.058950
     33 HC22        -3.1020     0.5390     1.1700 h1         1 DO3       0.058950
     34 HC31        -1.5690    -0.3000    -0.5180 h1         1 DO3       0.058950
     35 HC32        -0.1000     0.5980    -0.0710 h1         1 DO3       0.058950
     36 HC41         0.0250     1.6120    -2.2720 h1         1 DO3       0.018450
     37 HC42        -1.5040     0.8580    -2.7330 h1         1 DO3       0.018450
     38 HC51         1.8950     0.0860    -1.5690 h1         1 DO3       0.000200
     39 HC52         2.0660    -1.4250    -2.4450 h1         1 DO3       0.000200
     40 HC61         1.1270    -2.7350    -0.7760 h1         1 DO3       0.041450
     41 HC62         0.1520    -1.4770    -0.1060 h1         1 DO3       0.041450
     42 HC71         1.1560    -2.6220     2.0150 h1         1 DO3       0.041450
     43 HC72         2.5280    -1.7300     2.6290 h1         1 DO3       0.041450
     44 HC81         1.2520     0.4330     2.2940 h1         1 DO3       0.000200
     45 HC82         0.8070    -0.6020     3.6410 h1         1 DO3       0.000200
     46 H101        -0.9600    -2.5650     2.3870 h1         1 DO3      -0.011800
     47 H102        -1.4710    -1.5920     3.7520 h1         1 DO3      -0.011800
     48 H121        -0.2020     2.9710     0.5260 h1         1 DO3       0.002200
     49 H122        -0.8250     3.3090    -1.0790 h1         1 DO3       0.002200
     50 H141         1.1920     0.4670    -4.2270 h1         1 DO3      -0.011800
     51 H142         1.0030    -1.2680    -4.4210 h1         1 DO3      -0.011800
     52 HA           4.7100    -1.9970     2.0090 h1         1 DO3       0.010700
     53 H161         3.6710    -2.0800    -0.8300 h1         1 DO3       0.020200
     54 H162         3.3650    -3.2200     0.4820 h1         1 DO3       0.020200
     55 H171         6.8420    -1.3510     0.8860 hc         1 DO3       0.022367
     56 H172         6.2180    -2.8680     0.2070 hc         1 DO3       0.022367
     57 H173         6.0320    -1.3490    -0.6980 hc         1 DO3       0.022367
@<TRIPOS>BOND
     1     1     9 1   
     2     1    16 1   
     3     1    18 1   
     4     2    10 1   
     5     2    11 1   
     6     2    20 1   
     7     3    12 1   
     8     3    13 1   
     9     3    22 1   
    10     4    14 1   
    11     4    15 1   
    12     4    24 1   
    13     5    17 1   
    14     6    19 1   
    15     7    21 1   
    16     8    23 1   
    17     8    29 1   
    18     9    10 1   
    19     9    30 1   
    20     9    31 1   
    21    10    32 1   
    22    10    33 1   
    23    11    12 1   
    24    11    34 1   
    25    11    35 1   
    26    12    36 1   
    27    12    37 1   
    28    13    14 1   
    29    13    38 1   
    30    13    39 1   
    31    14    40 1   
    32    14    41 1   
    33    15    16 1   
    34    15    42 1   
    35    15    43 1   
    36    16    44 1   
    37    16    45 1   
    38    17    18 1   
    39    17    26 1   
    40    18    46 1   
    41    18    47 1   
    42    19    20 1   
    43    19    27 1   
    44    20    48 1   
    45    20    49 1   
    46    21    22 1   
    47    21    28 1   
    48    22    50 1   
    49    22    51 1   
    50    23    24 1   
    51    23    25 1   
    52    23    52 1   
    53    24    53 1   
    54    24    54 1   
    55    25    55 1   
    56    25    56 1   
    57    25    57 1   
@<TRIPOS>SUBSTRUCTURE
     1 DO3         1 TEMP              0 ****  ****    0 ROOT
