@<TRIPOS>MOLECULE
DO4
   14    13     1     0     0
SMALL
No Charge or Current Charge


@<TRIPOS>ATOM
      1 O3          -3.6090    -0.7990     0.7410 o          1 DO4      -0.555100
      2 C5          -3.0790    -0.3560    -0.2730 c          1 DO4       0.577900
      3 C4          -1.8200     0.5180    -0.2490 c3         1 DO4      -0.192400
      4 C3          -0.5180    -0.3310    -0.1550 c3         1 DO4      -0.187400
      5 C2           0.8150     0.4590    -0.1300 c          1 DO4       0.427100
      6 O5           0.8290     1.6810    -0.3080 o          1 DO4      -0.562100
      7 C1           2.1700    -0.3980     0.1320 c          1 DO4       0.650000
      8 O1           2.1040    -1.6250     0.1130 o          1 DO4      -0.694500
      9 O2           3.2200     0.2080     0.3380 o          1 DO4      -0.694500
     10 H5          -3.4950    -0.5750    -1.2810 h4         1 DO4      -0.032800
     11 H41         -1.7800     1.0850    -1.1870 hc         1 DO4       0.066700
     12 H42         -1.8690     1.1970     0.6110 hc         1 DO4       0.066700
     13 H31         -0.5260    -0.9960     0.7180 hc         1 DO4       0.066200
     14 H32         -0.4500    -1.0620    -0.9690 hc         1 DO4       0.066200
@<TRIPOS>BOND
     1     1     2 2   
     2     2     3 1   
     3     2    10 1   
     4     3     4 1   
     5     3    11 1   
     6     3    12 1   
     7     4     5 1   
     8     4    13 1   
     9     4    14 1   
    10     5     6 2   
    11     5     7 1   
    12     7     8 1   
    13     7     9 1   
@<TRIPOS>SUBSTRUCTURE
     1 DO4         1 TEMP              0 ****  ****    0 ROOT
