@<TRIPOS>MOLECULE
DO4
   14    13     1     0     0
SMALL
abcg2


@<TRIPOS>ATOM
      1 O3          -3.9810    -0.2960     0.3700 o          1 DO4      -0.555100
      2 C5          -2.9880    -0.3480    -0.3130 c          1 DO4       0.577900
      3 C4          -1.7660     0.4950    -0.1320 c3         1 DO4      -0.192400
      4 C3          -0.5130    -0.3720    -0.0880 c3         1 DO4      -0.187400
      5 C2           0.7660     0.4250    -0.0710 c          1 DO4       0.427100
      6 O5           0.7660     1.6320    -0.1010 o          1 DO4      -0.562100
      7 C1           2.1010    -0.3750    -0.0130 c          1 DO4       0.650000
      8 O1           1.9800    -1.6060     0.0940 o          1 DO4      -0.694500
      9 O2           3.1330     0.3050    -0.0840 o          1 DO4      -0.694500
     10 H5          -2.9270    -1.0540    -1.1630 h4         1 DO4      -0.032800
     11 H41         -1.7160     1.1660    -0.9980 hc         1 DO4       0.066700
     12 H42         -1.8640     1.1120     0.7610 hc         1 DO4       0.066700
     13 H31         -0.5230    -1.0280     0.7870 hc         1 DO4       0.066200
     14 H32         -0.4760    -1.0510    -0.9470 hc         1 DO4       0.066200
@<TRIPOS>BOND
     1     1     2 2   
     2     2     3 1   
     3     2    10 1   
     4     3     4 1   
     5     3    11 1   
     6     3    12 1   
     7     4     5 1   
     8     4    13 1   
     9     4    14 1   
    10     5     6 2   
    11     5     7 1   
    12     7     8 1   
    13     7     9 1   
@<TRIPOS>SUBSTRUCTURE
     1 DO4         1 TEMP              0 ****  ****    0 ROOT
