@<TRIPOS>MOLECULE
DO5
   49    52     1     0     0
SMALL
abcg2


@<TRIPOS>ATOM
      1 C10          2.3230     1.5220    -1.1940 c6         1 DO5      -0.115400
      2 C11          0.9470     1.1380    -1.7320 c6         1 DO5       0.101000
      3 C13         -1.0600     1.7670    -0.4970 c          1 DO5       0.616100
      4 C15         -2.8150     0.2890     0.4890 ca         1 DO5      -0.079300
      5 C16         -3.0540    -0.5830     1.5460 ca         1 DO5      -0.087500
      6 C17         -3.8540    -1.7060     1.3890 ca         1 DO5      -0.106000
      7 C18         -4.4200    -1.9580     0.1500 ca         1 DO5       0.123000
      8 C20         -4.2010    -1.1060    -0.9210 ca         1 DO5      -0.106000
      9 C21         -3.4040     0.0150    -0.7430 ca         1 DO5      -0.087500
     10 C22         -2.8410     2.7200     1.1010 c3         1 DO5       0.197300
     11 C23         -2.0310     3.9660     1.4320 c3         1 DO5      -0.131100
     12 C26          0.4240    -0.1000     0.2780 c6         1 DO5       0.101000
     13 C27          1.7760     0.2390     0.8970 c6         1 DO5      -0.115400
     14 C1           6.1250    -0.2430     0.9530 ca         1 DO5      -0.098000
     15 C2           4.8880    -0.1160     0.3690 ca         1 DO5       0.049600
     16 C3           4.3300    -1.1270    -0.3980 ca         1 DO5       0.049600
     17 C4           4.9840    -2.3140    -0.6220 ca         1 DO5      -0.098000
     18 C5           6.2480    -2.4580    -0.0350 ca         1 DO5      -0.112000
     19 C6           6.8040    -1.4480     0.7330 ca         1 DO5      -0.112000
     20 O7           3.1220    -0.7250    -0.8580 os         1 DO5      -0.341600
     21 C8           2.8130     0.5050    -0.1840 c5         1 DO5       0.394000
     22 O9           4.0390     0.9400     0.4070 os         1 DO5      -0.341600
     23 N12          0.0110     0.9470    -0.6370 n          1 DO5      -0.418800
     24 C14         -1.9660     1.5200     0.7070 c3         1 DO5      -0.084400
     25 CL          -5.4150    -3.3630    -0.0660 cl         1 DO5      -0.205000
     26 O24         -3.8090     2.9510     0.1070 oh         1 DO5      -0.637000
     27 O25         -1.3080     2.6430    -1.3120 o          1 DO5      -0.580100
     28 H1           3.0380     1.6050    -2.0150 hc         1 DO5       0.070950
     29 H2           2.2620     2.4980    -0.7060 hc         1 DO5       0.070950
     30 H3           0.5790     1.9130    -2.3970 h1         1 DO5       0.065950
     31 H4           1.0060     0.2130    -2.3130 h1         1 DO5       0.065950
     32 H5          -2.6110    -0.3890     2.5150 ha         1 DO5       0.125500
     33 H6          -4.0280    -2.3740     2.2220 ha         1 DO5       0.130500
     34 H7          -4.6480    -1.3080    -1.8850 ha         1 DO5       0.130500
     35 H8          -3.2450     0.6750    -1.5850 ha         1 DO5       0.125500
     36 H9          -3.3330     2.3980     2.0310 h1         1 DO5       0.019700
     37 H10         -2.6790     4.7310     1.8640 hc         1 DO5       0.046700
     38 H11         -1.2620     3.7420     2.1730 hc         1 DO5       0.046700
     39 H12         -1.5500     4.3880     0.5520 hc         1 DO5       0.046700
     40 H13          0.4790    -1.0450    -0.2710 h1         1 DO5       0.065950
     41 H14         -0.3060    -0.2520     1.0650 h1         1 DO5       0.065950
     42 H15          1.6760     1.1320     1.5190 hc         1 DO5       0.070950
     43 H16          2.1040    -0.5780     1.5450 hc         1 DO5       0.070950
     44 H17          6.5560     0.5470     1.5520 ha         1 DO5       0.132000
     45 H18          4.5460    -3.1000    -1.2230 ha         1 DO5       0.132000
     46 H19          6.7940    -3.3800    -0.1850 ha         1 DO5       0.119000
     47 H20          7.7800    -1.5900     1.1770 ha         1 DO5       0.119000
     48 H21         -1.3370     1.3450     1.5850 hc         1 DO5       0.062700
     49 H22         -4.4870     3.5200     0.4840 ho         1 DO5       0.442000
@<TRIPOS>BOND
     1     1     2 1   
     2     1    21 1   
     3     1    28 1   
     4     1    29 1   
     5     2    23 1   
     6     2    30 1   
     7     2    31 1   
     8     3    23 1   
     9     3    24 1   
    10     3    27 2   
    11     4     5 ar  
    12     4     9 ar  
    13     4    24 1   
    14     5     6 ar  
    15     5    32 1   
    16     6     7 ar  
    17     6    33 1   
    18     7     8 ar  
    19     7    25 1   
    20     8     9 ar  
    21     8    34 1   
    22     9    35 1   
    23    10    11 1   
    24    10    24 1   
    25    10    26 1   
    26    10    36 1   
    27    11    37 1   
    28    11    38 1   
    29    11    39 1   
    30    12    13 1   
    31    12    23 1   
    32    12    40 1   
    33    12    41 1   
    34    13    21 1   
    35    13    42 1   
    36    13    43 1   
    37    14    15 ar  
    38    14    19 ar  
    39    14    44 1   
    40    15    16 ar  
    41    15    22 1   
    42    16    17 ar  
    43    16    20 1   
    44    17    18 ar  
    45    17    45 1   
    46    18    19 ar  
    47    18    46 1   
    48    19    47 1   
    49    20    21 1   
    50    21    22 1   
    51    24    48 1   
    52    26    49 1   
@<TRIPOS>SUBSTRUCTURE
     1 DO5         1 TEMP              0 ****  ****    0 ROOT
