@<TRIPOS>MOLECULE
DO5
   49    52     1     0     0
SMALL
No Charge or Current Charge


@<TRIPOS>ATOM
      1 C10          2.7300     1.7640    -0.4190 c6         1 DO5      -0.115400
      2 C11          1.3190     1.7800    -1.0490 c6         1 DO5       0.101000
      3 C13         -1.1110     1.7570    -0.4710 c          1 DO5       0.616100
      4 C15         -2.9490     0.2700     0.5010 ca         1 DO5      -0.079300
      5 C16         -3.0870    -0.5350     1.6520 ca         1 DO5      -0.087500
      6 C17         -3.7290    -1.7840     1.5780 ca         1 DO5      -0.106000
      7 C18         -4.2390    -2.2390     0.3530 ca         1 DO5       0.123000
      8 C20         -4.1120    -1.4470    -0.7980 ca         1 DO5      -0.106000
      9 C21         -3.4700    -0.1980    -0.7250 ca         1 DO5      -0.087500
     10 C22         -3.2120     2.8320     0.6560 c3         1 DO5       0.197300
     11 C23         -2.5020     4.1910     0.8300 c3         1 DO5      -0.131100
     12 C26          0.5010     0.2550     0.7570 c6         1 DO5       0.101000
     13 C27          1.9160     0.2420     1.3780 c6         1 DO5      -0.115400
     14 C1           6.3200    -0.8820     0.7180 ca         1 DO5      -0.098000
     15 C2           5.0010    -0.5130     0.4220 ca         1 DO5       0.049600
     16 C3           4.2520    -1.1960    -0.4950 ca         1 DO5       0.049600
     17 C4           4.7630    -2.3010    -1.1870 ca         1 DO5      -0.098000
     18 C5           6.0890    -2.7000    -0.9120 ca         1 DO5      -0.112000
     19 C6           6.8650    -1.9920     0.0380 ca         1 DO5      -0.112000
     20 O7           3.0060    -0.6780    -0.6340 os         1 DO5      -0.341600
     21 C8           3.0130     0.4430     0.3170 c5         1 DO5       0.394000
     22 O9           4.3220     0.5230     0.9780 os         1 DO5      -0.341600
     23 N12          0.2220     1.4590    -0.0870 n          1 DO5      -0.418800
     24 C14         -2.2300     1.6260     0.5990 c3         1 DO5      -0.084400
     25 Cl          -5.0420    -3.8010     0.2600 cl         1 DO5      -0.205000
     26 O24         -4.0530     2.8940    -0.4990 oh         1 DO5      -0.637000
     27 O25         -1.3480     2.1040    -1.6230 o          1 DO5      -0.580100
     28 H1           3.4860     1.9220    -1.1990 hc         1 DO5       0.070950
     29 H2           2.8250     2.6030     0.2830 hc         1 DO5       0.070950
     30 H3           1.1440     2.7740    -1.4850 h1         1 DO5       0.065950
     31 H4           1.2850     1.0550    -1.8760 h1         1 DO5       0.065950
     32 H5          -2.6980    -0.1960     2.6110 ha         1 DO5       0.125500
     33 H6          -3.8300    -2.3980     2.4690 ha         1 DO5       0.130500
     34 H7          -4.5110    -1.7990    -1.7460 ha         1 DO5       0.130500
     35 H8          -3.3860     0.4070    -1.6250 ha         1 DO5       0.125500
     36 H9          -3.8450     2.6830     1.5410 h1         1 DO5       0.019700
     37 H10         -3.2350     4.9940     0.9710 hc         1 DO5       0.046700
     38 H11         -1.8500     4.1730     1.7120 hc         1 DO5       0.046700
     39 H12         -1.8900     4.4370    -0.0450 hc         1 DO5       0.046700
     40 H13          0.3780    -0.6410     0.1310 h1         1 DO5       0.065950
     41 H14         -0.2230     0.1640     1.5750 h1         1 DO5       0.065950
     42 H15          1.9890     1.0360     2.1340 hc         1 DO5       0.070950
     43 H16          2.0810    -0.7070     1.9040 hc         1 DO5       0.070950
     44 H17          6.9030    -0.3280     1.4500 ha         1 DO5       0.132000
     45 H18          4.1540    -2.8330    -1.9140 ha         1 DO5       0.132000
     46 H19          6.5160    -3.5540    -1.4330 ha         1 DO5       0.119000
     47 H20          7.8860    -2.3060     0.2440 ha         1 DO5       0.119000
     48 H21         -1.7200     1.6340     1.5660 hc         1 DO5       0.062700
     49 H22         -4.7030     3.6110    -0.3410 ho         1 DO5       0.442000
@<TRIPOS>BOND
     1     1     2 1   
     2     1    21 1   
     3     1    28 1   
     4     1    29 1   
     5     2    23 1   
     6     2    30 1   
     7     2    31 1   
     8     3    23 1   
     9     3    24 1   
    10     3    27 2   
    11     4     5 ar  
    12     4     9 ar  
    13     4    24 1   
    14     5     6 ar  
    15     5    32 1   
    16     6     7 ar  
    17     6    33 1   
    18     7     8 ar  
    19     7    25 1   
    20     8     9 ar  
    21     8    34 1   
    22     9    35 1   
    23    10    11 1   
    24    10    24 1   
    25    10    26 1   
    26    10    36 1   
    27    11    37 1   
    28    11    38 1   
    29    11    39 1   
    30    12    13 1   
    31    12    23 1   
    32    12    40 1   
    33    12    41 1   
    34    13    21 1   
    35    13    42 1   
    36    13    43 1   
    37    14    15 ar  
    38    14    19 ar  
    39    14    44 1   
    40    15    16 ar  
    41    15    22 1   
    42    16    17 ar  
    43    16    20 1   
    44    17    18 ar  
    45    17    45 1   
    46    18    19 ar  
    47    18    46 1   
    48    19    47 1   
    49    20    21 1   
    50    21    22 1   
    51    24    48 1   
    52    26    49 1   
@<TRIPOS>SUBSTRUCTURE
     1 DO5         1 TEMP              0 ****  ****    0 ROOT
