@<TRIPOS>MOLECULE
DO6
   47    49     1     0     0
SMALL
bcc


@<TRIPOS>ATOM
      1 C3          16.3100    67.5970    40.5990 ca         1 DO6      -0.203000
      2 C5          17.9350    67.4020    38.8130 ca         1 DO6      -0.203000
      3 C12         18.4360    66.7210    36.1370 c3         1 DO6       0.120700
      4 C9          13.9730    67.4940    36.8580 c3         1 DO6       0.126700
      5 C13         18.6950    68.1700    41.0400 c          1 DO6       0.622900
      6 C15         18.5760    67.8970    42.4780 cc         1 DO6      -0.245400
      7 C16         18.0430    66.7230    43.1430 ca         1 DO6      -0.072800
      8 C17         18.2390    66.9710    44.4990 ca         1 DO6       0.041100
      9 C1          15.6120    66.8810    38.4040 ca         1 DO6       0.045100
     10 C2          15.3000    67.1980    39.7290 ca         1 DO6       0.143100
     11 C4          17.6170    67.6920    40.1370 ca         1 DO6      -0.096600
     12 C6          16.9320    66.9870    37.9460 ca         1 DO6       0.143100
     13 O7          14.6430    66.4520    37.5610 os         1 DO6      -0.307900
     14 O8          14.0070    67.0800    40.0670 os         1 DO6      -0.300400
     15 C10         13.6410    67.3090    41.4140 c3         1 DO6       0.120700
     16 O11         17.1230    66.6600    36.6590 os         1 DO6      -0.300400
     17 O14         19.6510    68.7790    40.5930 o          1 DO6      -0.529100
     18 O18         18.8210    68.1820    44.6830 os         1 DO6      -0.152200
     19 C19         19.0330    68.7210    43.4640 cd         1 DO6       0.116900
     20 C20         17.4850    65.5070    42.7610 ca         1 DO6      -0.090000
     21 C21         17.1350    64.6000    43.7510 ca         1 DO6      -0.175000
     22 C22         17.3340    64.8790    45.1070 ca         1 DO6       0.051100
     23 C23         17.9040    66.0920    45.5110 ca         1 DO6       0.127100
     24 O24         17.0200    64.0470    46.1260 os         1 DO6      -0.342900
     25 C25         16.5060    62.7670    45.8210 c3         1 DO6       0.133700
     26 O26         18.1370    66.4190    46.7940 oh         1 DO6      -0.477100
     27 C27         19.6660    70.0570    43.4480 c3         1 DO6      -0.043900
     28 H1          16.0900    67.8550    41.6250 ha         1 DO6       0.153500
     29 H2          18.9610    67.4910    38.4820 ha         1 DO6       0.153500
     30 H3          18.3690    66.4020    35.1000 h1         1 DO6       0.043700
     31 H4          18.8400    67.7360    36.1660 h1         1 DO6       0.043700
     32 H5          19.1180    66.0520    36.6680 h1         1 DO6       0.043700
     33 H6          13.2560    67.0200    36.1920 h1         1 DO6       0.035367
     34 H7          13.4360    68.1580    37.5380 h1         1 DO6       0.035367
     35 H8          14.6680    68.0880    36.2600 h1         1 DO6       0.035367
     36 H9          12.5690    67.1370    41.4750 h1         1 DO6       0.043700
     37 H10         14.1460    66.6200    42.0970 h1         1 DO6       0.043700
     38 H11         13.8490    68.3350    41.7270 h1         1 DO6       0.043700
     39 H12         17.3210    65.2550    41.7240 ha         1 DO6       0.152000
     40 H13         16.7010    63.6560    43.4530 ha         1 DO6       0.139000
     41 H14         16.3590    62.2580    46.7700 h1         1 DO6       0.043033
     42 H15         15.5470    62.8270    45.3010 h1         1 DO6       0.043033
     43 H16         17.2030    62.1860    45.2110 h1         1 DO6       0.043033
     44 H17         17.8550    65.7010    47.3730 ho         1 DO6       0.444000
     45 H18         19.2130    70.7060    44.1970 hc         1 DO6       0.069367
     46 H19         20.7310    69.9820    43.6760 hc         1 DO6       0.069367
     47 H20         19.5670    70.5240    42.4730 hc         1 DO6       0.069367
@<TRIPOS>BOND
     1     1    10 ar  
     2     1    11 ar  
     3     1    28 1   
     4     2    11 ar  
     5     2    12 ar  
     6     2    29 1   
     7     3    16 1   
     8     3    30 1   
     9     3    31 1   
    10     3    32 1   
    11     4    13 1   
    12     4    33 1   
    13     4    34 1   
    14     4    35 1   
    15     5     6 1   
    16     5    11 1   
    17     5    17 2   
    18     6     7 1   
    19     6    19 2   
    20     7     8 ar  
    21     7    20 ar  
    22     8    18 1   
    23     8    23 ar  
    24     9    10 ar  
    25     9    12 ar  
    26     9    13 1   
    27    10    14 1   
    28    12    16 1   
    29    14    15 1   
    30    15    36 1   
    31    15    37 1   
    32    15    38 1   
    33    18    19 1   
    34    19    27 1   
    35    20    21 ar  
    36    20    39 1   
    37    21    22 ar  
    38    21    40 1   
    39    22    23 ar  
    40    22    24 1   
    41    23    26 1   
    42    24    25 1   
    43    25    41 1   
    44    25    42 1   
    45    25    43 1   
    46    26    44 1   
    47    27    45 1   
    48    27    46 1   
    49    27    47 1   
@<TRIPOS>SUBSTRUCTURE
     1 DO6         1 TEMP              0 ****  ****    0 ROOT
