@<TRIPOS>MOLECULE
DO6
   47    49     1     0     0
SMALL
No Charge or Current Charge


@<TRIPOS>ATOM
      1 C3          16.4500    67.6890    40.8080 ca         1 DO6      -0.185000
      2 C5          17.8550    67.6280    38.8350 ca         1 DO6      -0.185000
      3 C12         18.1700    67.2600    35.9890 c3         1 DO6       0.143900
      4 C9          14.2000    66.5680    36.5290 c3         1 DO6       0.149900
      5 C13         18.9570    68.1630    41.0530 c          1 DO6       0.622900
      6 C15         18.9340    67.8270    42.4980 cc         1 DO6      -0.245400
      7 C16         18.2910    66.7090    43.1760 ca         1 DO6      -0.072800
      8 C17         18.2860    66.9840    44.5230 ca         1 DO6       0.041100
      9 C1          15.4560    67.1510    38.6310 ca         1 DO6       0.045100
     10 C2          15.3260    67.3510    40.0260 ca         1 DO6       0.143100
     11 C4          17.7290    67.8070    40.2270 ca         1 DO6      -0.096600
     12 C6          16.7420    67.3000    38.0250 ca         1 DO6       0.143100
     13 O7          14.2860    66.8210    37.9420 os         1 DO6      -0.331100
     14 O8          14.0700    67.2050    40.5970 os         1 DO6      -0.323600
     15 C10         13.8440    67.3030    42.0140 c3         1 DO6       0.143900
     16 O11         16.9040    67.1230    36.6600 os         1 DO6      -0.323600
     17 O14         19.8520    68.8500    40.5730 o          1 DO6      -0.529100
     18 O18         18.8740    68.1930    44.7350 os         1 DO6      -0.152200
     19 C19         19.2420    68.7170    43.5200 cd         1 DO6       0.116900
     20 C20         17.7690    65.5040    42.6820 ca         1 DO6      -0.072000
     21 C21         17.2090    64.5920    43.6050 ca         1 DO6      -0.157000
     22 C22         17.1900    64.8870    44.9980 ca         1 DO6       0.051100
     23 C23         17.7440    66.1030    45.4690 ca         1 DO6       0.127100
     24 O24         16.6500    64.0170    45.9310 os         1 DO6      -0.366100
     25 C25         16.0610    62.7580    45.5560 c3         1 DO6       0.156900
     26 O26         17.7420    66.3950    46.8060 oh         1 DO6      -0.516100
     27 C27         19.7930    70.1160    43.4740 c3         1 DO6      -0.043900
     28 H1          16.3360    67.8770    41.8700 ha         1 DO6       0.135500
     29 H2          18.8420    67.7400    38.3970 ha         1 DO6       0.135500
     30 H3          18.0510    67.0760    34.9140 h1         1 DO6       0.043700
     31 H4          18.5720    68.2730    36.1170 h1         1 DO6       0.043700
     32 H5          18.8980    66.5360    36.3770 h1         1 DO6       0.043700
     33 H6          13.1660    66.3230    36.2530 h1         1 DO6       0.035367
     34 H7          14.4990    67.4520    35.9520 h1         1 DO6       0.035367
     35 H8          14.8320    65.7170    36.2430 h1         1 DO6       0.035367
     36 H9          12.7860    67.1230    42.2430 h1         1 DO6       0.043700
     37 H10         14.4410    66.5590    42.5570 h1         1 DO6       0.043700
     38 H11         14.1050    68.3030    42.3840 h1         1 DO6       0.043700
     39 H12         17.7930    65.2740    41.6190 ha         1 DO6       0.134000
     40 H13         16.7980    63.6620    43.2220 ha         1 DO6       0.121000
     41 H14         15.6940    62.2300    46.4450 h1         1 DO6       0.043033
     42 H15         15.2120    62.9110    44.8770 h1         1 DO6       0.043033
     43 H16         16.7980    62.1140    45.0590 h1         1 DO6       0.043033
     44 H17         17.3140    65.6340    47.2580 ho         1 DO6       0.483000
     45 H18         19.8490    70.5560    44.4760 hc         1 DO6       0.069367
     46 H19         20.8020    70.1240    43.0470 hc         1 DO6       0.069367
     47 H20         19.1600    70.7660    42.8580 hc         1 DO6       0.069367
@<TRIPOS>BOND
     1     1    10 ar  
     2     1    11 ar  
     3     1    28 1   
     4     2    11 ar  
     5     2    12 ar  
     6     2    29 1   
     7     3    16 1   
     8     3    30 1   
     9     3    31 1   
    10     3    32 1   
    11     4    13 1   
    12     4    33 1   
    13     4    34 1   
    14     4    35 1   
    15     5     6 1   
    16     5    11 1   
    17     5    17 2   
    18     6     7 1   
    19     6    19 2   
    20     7     8 ar  
    21     7    20 ar  
    22     8    18 1   
    23     8    23 ar  
    24     9    10 ar  
    25     9    12 ar  
    26     9    13 1   
    27    10    14 1   
    28    12    16 1   
    29    14    15 1   
    30    15    36 1   
    31    15    37 1   
    32    15    38 1   
    33    18    19 1   
    34    19    27 1   
    35    20    21 ar  
    36    20    39 1   
    37    21    22 ar  
    38    21    40 1   
    39    22    23 ar  
    40    22    24 1   
    41    23    26 1   
    42    24    25 1   
    43    25    41 1   
    44    25    42 1   
    45    25    43 1   
    46    26    44 1   
    47    27    45 1   
    48    27    46 1   
    49    27    47 1   
@<TRIPOS>SUBSTRUCTURE
     1 DO6         1 TEMP              0 ****  ****    0 ROOT
