@<TRIPOS>MOLECULE
DO7
   29    29     1     0     0
SMALL
No Charge or Current Charge


@<TRIPOS>ATOM
      1 C4           7.9050   -20.6890    94.9520 c3         1 DO7      -0.346400
      2 C5           7.0180   -18.4970    96.0090 c6         1 DO7       0.147300
      3 C6           7.0700   -17.6450    97.3080 c6         1 DO7       0.129300
      4 C7           8.5460   -17.3880    97.7310 c6         1 DO7       0.117300
      5 C1           9.5660   -20.7130    99.2780 c3         1 DO7       0.142900
      6 C2           9.3120   -18.7510    97.8400 c6         1 DO7       0.361300
      7 C3           7.8120   -19.8270    96.2350 c6         1 DO7       0.213300
      8 O1           8.8310   -19.5180    98.9630 os         1 DO7      -0.475000
      9 O2           9.1710   -19.5150    96.6200 os         1 DO7      -0.453000
     10 S1           8.2310   -22.4360    95.2050 s6         1 DO7       1.320600
     11 O3           8.1130   -23.0000    93.8520 o          1 DO7      -0.695200
     12 O4           7.1730   -22.8610    96.1320 o          1 DO7      -0.695200
     13 O5           9.5890   -22.4850    95.7630 o          1 DO7      -0.695200
     14 O6           5.6420   -18.7250    95.6480 oh         1 DO7      -0.700000
     15 O7           6.3740   -16.3950    97.1280 oh         1 DO7      -0.680000
     16 O8           8.5800   -16.6490    98.9760 oh         1 DO7      -0.717000
     17 H7           8.6870   -20.3100    94.2880 h1         1 DO7       0.083200
     18 H6           6.9460   -20.6620    94.4270 h1         1 DO7       0.083200
     19 H9           7.5190   -17.9340    95.2060 h1         1 DO7       0.038700
     20 H11          6.5870   -18.2250    98.1100 h1         1 DO7       0.070700
     21 H13          9.0320   -16.7970    96.9400 h1         1 DO7       0.045700
     22 H1           9.1380   -21.2030   100.1610 h1         1 DO7       0.041033
     23 H2           9.5320   -21.4270    98.4450 h1         1 DO7       0.041033
     24 H3          10.6180   -20.4800    99.4920 h1         1 DO7       0.041033
     25 H4          10.3790   -18.5310    97.9950 h2         1 DO7       0.051700
     26 H5           7.3230   -20.4040    97.0340 h1         1 DO7       0.080700
     27 H10          5.1910   -17.8710    95.8520 ho         1 DO7       0.501000
     28 H12          6.7430   -15.7970    97.8190 ho         1 DO7       0.450000
     29 H14          8.5310   -17.3260    99.6930 ho         1 DO7       0.498000
@<TRIPOS>BOND
     1     1     7 1   
     2     1    10 1   
     3     1    17 1   
     4     1    18 1   
     5     2     3 1   
     6     2     7 1   
     7     2    14 1   
     8     2    19 1   
     9     3     4 1   
    10     3    15 1   
    11     3    20 1   
    12     4     6 1   
    13     4    16 1   
    14     4    21 1   
    15     5     8 1   
    16     5    22 1   
    17     5    23 1   
    18     5    24 1   
    19     6     8 1   
    20     6     9 1   
    21     6    25 1   
    22     7     9 1   
    23     7    26 1   
    24    10    11 1   
    25    10    12 1   
    26    10    13 1   
    27    14    27 1   
    28    15    28 1   
    29    16    29 1   
@<TRIPOS>SUBSTRUCTURE
     1 DO7         1 TEMP              0 ****  ****    0 ROOT
