@<TRIPOS>MOLECULE
DO7
   29    29     1     0     0
SMALL
abcg2


@<TRIPOS>ATOM
      1 C4           7.8840   -20.6120    94.9770 c3         1 DO7      -0.346400
      2 C5           7.0660   -18.4720    96.0520 c6         1 DO7       0.147300
      3 C6           7.0950   -17.6840    97.3570 c6         1 DO7       0.129300
      4 C7           8.5330   -17.5000    97.8240 c6         1 DO7       0.117300
      5 C1           9.4150   -20.7840    99.2250 c3         1 DO7       0.142900
      6 C2           9.2490   -18.8530    97.8960 c6         1 DO7       0.361300
      7 C3           7.8160   -19.7910    96.2480 c6         1 DO7       0.213300
      8 O1           8.7200   -19.5850    98.9480 os         1 DO7      -0.475000
      9 O2           9.1420   -19.5130    96.6660 os         1 DO7      -0.453000
     10 S1           8.2920   -22.3590    95.2350 s6         1 DO7       1.320600
     11 O3           8.1490   -22.9630    93.8950 o          1 DO7      -0.695200
     12 O4           7.2950   -22.8510    96.2090 o          1 DO7      -0.695200
     13 O5           9.6740   -22.4190    95.7470 o          1 DO7      -0.695200
     14 O6           5.7500   -18.7700    95.6600 oh         1 DO7      -0.700000
     15 O7           6.4610   -16.4490    97.1160 oh         1 DO7      -0.680000
     16 O8           8.5070   -16.8320    99.0600 oh         1 DO7      -0.717000
     17 H7           8.6100   -20.1900    94.2780 h1         1 DO7       0.083200
     18 H6           6.9100   -20.6080    94.4860 h1         1 DO7       0.083200
     19 H9           7.5870   -17.8840    95.2780 h1         1 DO7       0.038700
     20 H11          6.5430   -18.2610    98.1150 h1         1 DO7       0.070700
     21 H13          9.0610   -16.9050    97.0650 h1         1 DO7       0.045700
     22 H1           8.9990   -21.1960   100.1420 h1         1 DO7       0.041033
     23 H2           9.3060   -21.5250    98.4290 h1         1 DO7       0.041033
     24 H3          10.4840   -20.6020    99.3800 h1         1 DO7       0.041033
     25 H4          10.3290   -18.7010    98.0380 h2         1 DO7       0.051700
     26 H5           7.2790   -20.3710    97.0100 h1         1 DO7       0.080700
     27 H10          5.2640   -17.9420    95.5850 ho         1 DO7       0.501000
     28 H12          6.3650   -15.9860    97.9540 ho         1 DO7       0.450000
     29 H14          9.3750   -16.4540    99.2280 ho         1 DO7       0.498000
@<TRIPOS>BOND
     1     1     7 1   
     2     1    10 1   
     3     1    17 1   
     4     1    18 1   
     5     2     3 1   
     6     2     7 1   
     7     2    14 1   
     8     2    19 1   
     9     3     4 1   
    10     3    15 1   
    11     3    20 1   
    12     4     6 1   
    13     4    16 1   
    14     4    21 1   
    15     5     8 1   
    16     5    22 1   
    17     5    23 1   
    18     5    24 1   
    19     6     8 1   
    20     6     9 1   
    21     6    25 1   
    22     7     9 1   
    23     7    26 1   
    24    10    11 1   
    25    10    12 1   
    26    10    13 1   
    27    14    27 1   
    28    15    28 1   
    29    16    29 1   
@<TRIPOS>SUBSTRUCTURE
     1 DO7         1 TEMP              0 ****  ****    0 ROOT
