@<TRIPOS>MOLECULE
DO9
   41    44     1     0     0
SMALL
bcc


@<TRIPOS>ATOM
      1 C10         -1.5540    -1.5080     1.2710 c3         1 DO9       0.194300
      2 C13          1.0390     2.5360     1.0400 cx         1 DO9      -0.102900
      3 C20          3.8340    -1.2120     0.2180 ca         1 DO9      -0.148000
      4 C21          5.1770    -0.9010     0.1380 ca         1 DO9      -0.071000
      5 C22          5.6050     0.1720    -0.6460 ca         1 DO9      -0.031000
      6 C24          3.3310     0.6200    -1.2680 ca         1 DO9      -0.148000
      7 C02         -3.3660     0.6420    -0.4830 cc         1 DO9       0.085700
      8 C03         -4.4500     1.0990    -1.1530 cd         1 DO9      -0.107100
      9 C05         -4.7600    -1.2080    -0.4190 cc         1 DO9       0.436900
     10 C07         -3.7450    -2.7200     0.6270 cd         1 DO9       0.352200
     11 C08         -2.8820    -1.6560     0.6300 cc         1 DO9      -0.251900
     12 C09         -2.1700     1.3550    -0.2630 cg         1 DO9      -0.155000
     13 C11         -1.1680     2.0150    -0.1320 c1         1 DO9      -0.020100
     14 C12          0.0130     2.8150    -0.0310 cx         1 DO9      -0.098600
     15 C14          0.1940     3.7540     1.1410 cx         1 DO9      -0.102900
     16 C16          0.7610    -1.0680     0.6060 cs         1 DO9       0.605400
     17 C19          2.8990    -0.4430    -0.4740 ca         1 DO9       0.090600
     18 C23          4.6740     0.9280    -1.3580 ca         1 DO9      -0.071000
     19 N01         -3.5600    -0.6720    -0.0620 na         1 DO9      -0.116900
     20 N06         -4.9140    -2.4380    -0.0220 nd         1 DO9      -0.636000
     21 N15         -0.4980    -1.3670     0.2860 ns         1 DO9      -0.510900
     22 N18          1.5360    -0.7340    -0.4630 ns         1 DO9      -0.440100
     23 N26          8.1140     0.7460    -0.7920 n1         1 DO9      -0.359800
     24 S04         -5.7210    -0.0700    -1.2960 ss         1 DO9      -0.071300
     25 S17          1.2960    -1.0730     2.1920 s          1 DO9      -0.639400
     26 H1          -1.5340    -0.6440     1.9400 h1         1 DO9       0.087200
     27 H2          -1.3820    -2.3890     1.8920 h1         1 DO9       0.087200
     28 H3           0.8510     1.7120     1.7150 hc         1 DO9       0.086700
     29 H4           2.0750     2.6490     0.7480 hc         1 DO9       0.086700
     30 H5           3.5200    -2.0610     0.8060 ha         1 DO9       0.151000
     31 H6           5.8980    -1.5030     0.6730 ha         1 DO9       0.148000
     32 H7           2.6100     1.2140    -1.8140 ha         1 DO9       0.151000
     33 H8          -4.5590     2.0790    -1.5870 h4         1 DO9       0.190000
     34 H9          -3.5710    -3.6840     1.0810 h4         1 DO9       0.047100
     35 H10          0.3980     3.1600    -0.9850 hc         1 DO9       0.094700
     36 H11         -0.5900     3.7750     1.8870 hc         1 DO9       0.086700
     37 H12          0.6380     4.7160     0.9220 hc         1 DO9       0.086700
     38 H13          4.9970     1.7590    -1.9690 ha         1 DO9       0.148000
     39 H14         -0.7540    -1.4520    -0.6870 hn         1 DO9       0.316500
     40 H15          1.0430    -0.4720    -1.3060 hn         1 DO9       0.312500
     41 C25          6.9920     0.4880    -0.7270 cg         1 DO9       0.234800
@<TRIPOS>BOND
     1     1    11 1   
     2     1    21 1   
     3     1    26 1   
     4     1    27 1   
     5     2    14 1   
     6     2    15 1   
     7     2    28 1   
     8     2    29 1   
     9     3     4 ar  
    10     3    17 ar  
    11     3    30 1   
    12     4     5 ar  
    13     4    31 1   
    14     5    18 ar  
    15     5    41 1   
    16     6    17 ar  
    17     6    18 ar  
    18     6    32 1   
    19     7     8 2   
    20     7    12 1   
    21     7    19 1   
    22     8    24 1   
    23     8    33 1   
    24     9    19 1   
    25     9    20 2   
    26     9    24 1   
    27    10    11 2   
    28    10    20 1   
    29    10    34 1   
    30    11    19 1   
    31    12    13 3   
    32    13    14 1   
    33    14    15 1   
    34    14    35 1   
    35    15    36 1   
    36    15    37 1   
    37    16    21 1   
    38    16    22 1   
    39    16    25 2   
    40    17    22 1   
    41    18    38 1   
    42    21    39 1   
    43    22    40 1   
    44    23    41 3   
@<TRIPOS>SUBSTRUCTURE
     1 DO9         1 TEMP              0 ****  ****    0 ROOT
