@<TRIPOS>MOLECULE
DO9
   41    44     1     0     0
SMALL
No Charge or Current Charge


@<TRIPOS>ATOM
      1 C10         -1.6380    -1.3880     1.3460 c3         1 DO9       0.194300
      2 C13          0.8830     2.4460     1.4200 cx         1 DO9      -0.102900
      3 C20          3.9180    -1.0570     0.3250 ca         1 DO9      -0.130000
      4 C21          5.2770    -0.7520     0.1250 ca         1 DO9      -0.053000
      5 C22          5.6560     0.1760    -0.8640 ca         1 DO9      -0.031000
      6 C24          3.3110     0.4790    -1.4550 ca         1 DO9      -0.130000
      7 C02         -3.3950     0.6350    -0.4440 cc         1 DO9       0.035000
      8 C03         -4.3750     1.0240    -1.3520 cd         1 DO9      -0.234000
      9 C05         -4.8760    -1.1340    -0.3960 cc         1 DO9       0.436900
     10 C07         -3.6780    -2.7030     0.3990 cd         1 DO9       0.286900
     11 C08         -2.9550    -1.5430     0.6350 cc         1 DO9      -0.237300
     12 C09         -2.2090     1.3750    -0.1870 cg         1 DO9      -0.155000
     13 C11         -1.1780     1.9940    -0.0130 c1         1 DO9      -0.020100
     14 C12          0.0740     2.6940     0.1680 cx         1 DO9      -0.098600
     15 C14          0.1820     3.7690     1.2250 cx         1 DO9      -0.102900
     16 C16          0.7830    -1.0970     0.7670 cs         1 DO9       0.471400
     17 C19          2.9250    -0.4330    -0.4560 ca         1 DO9       0.090600
     18 C23          4.6680     0.7880    -1.6560 ca         1 DO9      -0.053000
     19 N01         -3.8020    -0.5570     0.1660 na         1 DO9      -0.015500
     20 N06         -4.8540    -2.4520    -0.3110 nd         1 DO9      -0.636000
     21 N15         -0.5260    -1.2400     0.4160 ns         1 DO9      -0.443900
     22 N18          1.5480    -0.7130    -0.3010 ns         1 DO9      -0.373100
     23 N26          8.1700     0.7440    -1.2430 n1         1 DO9      -0.449000
     24 S04         -5.6860    -0.1570    -1.5730 ss         1 DO9       0.073600
     25 S17          1.3130    -1.2260     2.3490 s          1 DO9      -0.639400
     26 H1          -1.6740    -0.5090     2.0030 h1         1 DO9       0.087200
     27 H2          -1.4580    -2.2700     1.9770 h1         1 DO9       0.087200
     28 H3           0.4810     1.7690     2.1700 hc         1 DO9       0.086700
     29 H4           1.9660     2.4220     1.3240 hc         1 DO9       0.086700
     30 H5           3.6520    -1.7940     1.0750 ha         1 DO9       0.133000
     31 H6           6.0330    -1.2410     0.7370 ha         1 DO9       0.130000
     32 H7           2.5560     0.9610    -2.0730 ha         1 DO9       0.133000
     33 H8          -4.3710     1.9200    -1.9610 h4         1 DO9       0.172000
     34 H9          -3.3890    -3.7150     0.6560 h4         1 DO9       0.047100
     35 H10          0.6290     2.8500    -0.7550 hc         1 DO9       0.094700
     36 H11         -0.6900     3.9750     1.8430 hc         1 DO9       0.086700
     37 H12          0.7950     4.6390     1.0020 hc         1 DO9       0.086700
     38 H13          4.9480     1.5030    -2.4280 ha         1 DO9       0.130000
     39 H14         -0.7660    -1.1210    -0.5590 hn         1 DO9       0.316500
     40 H15          1.0260    -0.5900    -1.1590 hn         1 DO9       0.312500
     41 C25          7.0440     0.4890    -1.0680 cg         1 DO9       0.324000
@<TRIPOS>BOND
     1     1    11 1   
     2     1    21 1   
     3     1    26 1   
     4     1    27 1   
     5     2    14 1   
     6     2    15 1   
     7     2    28 1   
     8     2    29 1   
     9     3     4 ar  
    10     3    17 ar  
    11     3    30 1   
    12     4     5 ar  
    13     4    31 1   
    14     5    18 ar  
    15     5    41 1   
    16     6    17 ar  
    17     6    18 ar  
    18     6    32 1   
    19     7     8 2   
    20     7    12 1   
    21     7    19 1   
    22     8    24 1   
    23     8    33 1   
    24     9    19 1   
    25     9    20 2   
    26     9    24 1   
    27    10    11 2   
    28    10    20 1   
    29    10    34 1   
    30    11    19 1   
    31    12    13 3   
    32    13    14 1   
    33    14    15 1   
    34    14    35 1   
    35    15    36 1   
    36    15    37 1   
    37    16    21 1   
    38    16    22 1   
    39    16    25 2   
    40    17    22 1   
    41    18    38 1   
    42    21    39 1   
    43    22    40 1   
    44    23    41 3   
@<TRIPOS>SUBSTRUCTURE
     1 DO9         1 TEMP              0 ****  ****    0 ROOT
