@<TRIPOS>MOLECULE
DOA
   39    38     1     0     0
SMALL
bcc


@<TRIPOS>ATOM
      1 N           -0.4860    -0.0090     8.6280 n8         1 DOA      -0.884800
      2 CA           0.3790    -0.0210     7.4560 c3         1 DOA       0.147800
      3 C2          -0.4370    -0.0260     6.1730 c3         1 DOA      -0.078400
      4 C3           0.4310    -0.0320     4.9210 c3         1 DOA      -0.075400
      5 C4          -0.3780    -0.0500     3.6300 c3         1 DOA      -0.074400
      6 C5           0.4900    -0.0440     2.3770 c3         1 DOA      -0.074400
      7 C6          -0.3170    -0.0570     1.0850 c3         1 DOA      -0.075400
      8 C7           0.5500    -0.0410    -0.1680 c3         1 DOA      -0.074400
      9 C8          -0.2590    -0.0480    -1.4590 c3         1 DOA      -0.075400
     10 C9           0.6050    -0.0160    -2.7140 c3         1 DOA      -0.079400
     11 C10         -0.2080    -0.0180    -4.0030 c3         1 DOA      -0.054400
     12 CA2          0.6590     0.0350    -5.2500 c3         1 DOA      -0.203400
     13 C           -0.0890     0.0530    -6.5950 c          1 DOA       0.926600
     14 O           -1.3260    -0.1030    -6.5770 o          1 DOA      -0.849300
     15 OXT          0.6180     0.2180    -7.6130 o          1 DOA      -0.849300
     16 H           -0.9790     0.8760     8.6650 hn         1 DOA       0.332800
     17 H2           0.0800    -0.0360     9.4660 hn         1 DOA       0.332800
     18 HA1          1.0840     0.8230     7.4240 h1         1 DOA       0.025200
     19 HA2          0.9910    -0.9280     7.4920 h1         1 DOA       0.025200
     20 H21         -1.0970    -0.9000     6.1710 hc         1 DOA       0.044700
     21 H22         -1.0900     0.8540     6.1560 hc         1 DOA       0.044700
     22 H31          1.0840     0.8470     4.9260 hc         1 DOA       0.035200
     23 H32          1.0960    -0.9030     4.9440 hc         1 DOA       0.035200
     24 H41         -1.0260    -0.9340     3.6190 hc         1 DOA       0.037700
     25 H42         -1.0480     0.8170     3.6100 hc         1 DOA       0.037700
     26 H51          1.1390     0.8390     2.3900 hc         1 DOA       0.034200
     27 H52          1.1600    -0.9110     2.3960 hc         1 DOA       0.034200
     28 H61         -0.9620    -0.9440     1.0690 hc         1 DOA       0.035700
     29 H62         -0.9910     0.8070     1.0700 hc         1 DOA       0.035700
     30 H71          1.1960     0.8440    -0.1490 hc         1 DOA       0.031700
     31 H72          1.2220    -0.9060    -0.1550 hc         1 DOA       0.031700
     32 H81         -0.9000    -0.9360    -1.4820 hc         1 DOA       0.034200
     33 H82         -0.9370     0.8130    -1.4660 hc         1 DOA       0.034200
     34 H91          1.2470     0.8730    -2.6880 hc         1 DOA       0.023700
     35 H92          1.2850    -0.8760    -2.7080 hc         1 DOA       0.023700
     36 H101        -0.8400    -0.9110    -4.0290 hc         1 DOA       0.037700
     37 H102        -0.8950     0.8340    -3.9940 hc         1 DOA       0.037700
     38 HA21         1.3120     0.9150    -5.2080 hc         1 DOA       0.014200
     39 HA22         1.3450    -0.8220    -5.2550 hc         1 DOA       0.014200
@<TRIPOS>BOND
     1     1     2 1   
     2     1    16 1   
     3     1    17 1   
     4     2     3 1   
     5     2    18 1   
     6     2    19 1   
     7     3     4 1   
     8     3    20 1   
     9     3    21 1   
    10     4     5 1   
    11     4    22 1   
    12     4    23 1   
    13     5     6 1   
    14     5    24 1   
    15     5    25 1   
    16     6     7 1   
    17     6    26 1   
    18     6    27 1   
    19     7     8 1   
    20     7    28 1   
    21     7    29 1   
    22     8     9 1   
    23     8    30 1   
    24     8    31 1   
    25     9    10 1   
    26     9    32 1   
    27     9    33 1   
    28    10    11 1   
    29    10    34 1   
    30    10    35 1   
    31    11    12 1   
    32    11    36 1   
    33    11    37 1   
    34    12    13 1   
    35    12    38 1   
    36    12    39 1   
    37    13    14 1   
    38    13    15 1   
@<TRIPOS>SUBSTRUCTURE
     1 DOA         1 TEMP              0 ****  ****    0 ROOT
