@<TRIPOS>MOLECULE
DOA
   39    38     1     0     0
SMALL
No Charge or Current Charge


@<TRIPOS>ATOM
      1 N           -0.5050     0.0300     8.7170 n8         1 DOA      -0.884800
      2 CA           0.3630    -0.0600     7.5310 c3         1 DOA       0.147800
      3 C2          -0.4530     0.0290     6.2250 c3         1 DOA      -0.078400
      4 C3           0.4290    -0.0640     4.9600 c3         1 DOA      -0.075400
      5 C4          -0.3820     0.0240     3.6480 c3         1 DOA      -0.074400
      6 C5           0.5010    -0.0690     2.3840 c3         1 DOA      -0.074400
      7 C6          -0.3090     0.0190     1.0720 c3         1 DOA      -0.075400
      8 C7           0.5740    -0.0740    -0.1910 c3         1 DOA      -0.074400
      9 C8          -0.2360     0.0140    -1.5030 c3         1 DOA      -0.075400
     10 C9           0.6470    -0.0790    -2.7670 c3         1 DOA      -0.079400
     11 C10         -0.1630     0.0090    -4.0800 c3         1 DOA      -0.054400
     12 CA2          0.7210    -0.0840    -5.3480 c3         1 DOA      -0.203400
     13 C           -0.1490     0.0110    -6.6170 c          1 DOA       0.926600
     14 O           -0.6130    -1.0210    -7.0870 o          1 DOA      -0.849300
     15 OXT         -0.3850     1.1190    -7.0840 o          1 DOA      -0.849300
     16 H           -0.9600     0.9490     8.7290 hn         1 DOA       0.332800
     17 H2           0.0780     0.0250     9.5600 hn         1 DOA       0.332800
     18 HA1          1.0940     0.7580     7.5680 h1         1 DOA       0.025200
     19 HA2          0.9050    -1.0150     7.5660 h1         1 DOA       0.025200
     20 H21         -1.1940    -0.7800     6.2060 hc         1 DOA       0.044700
     21 H22         -1.0070     0.9750     6.2070 hc         1 DOA       0.044700
     22 H31          1.1720     0.7430     4.9790 hc         1 DOA       0.035200
     23 H32          0.9840    -1.0110     4.9770 hc         1 DOA       0.035200
     24 H41         -1.1240    -0.7840     3.6280 hc         1 DOA       0.037700
     25 H42         -0.9370     0.9700     3.6300 hc         1 DOA       0.037700
     26 H51          1.2440     0.7380     2.4030 hc         1 DOA       0.034200
     27 H52          1.0560    -1.0160     2.4020 hc         1 DOA       0.034200
     28 H61         -1.0520    -0.7890     1.0530 hc         1 DOA       0.035700
     29 H62         -0.8640     0.9650     1.0550 hc         1 DOA       0.035700
     30 H71          1.3170     0.7330    -0.1720 hc         1 DOA       0.031700
     31 H72          1.1290    -1.0210    -0.1740 hc         1 DOA       0.031700
     32 H81         -0.9790    -0.7940    -1.5230 hc         1 DOA       0.034200
     33 H82         -0.7910     0.9600    -1.5200 hc         1 DOA       0.034200
     34 H91          1.3900     0.7280    -2.7460 hc         1 DOA       0.023700
     35 H92          1.2020    -1.0260    -2.7490 hc         1 DOA       0.023700
     36 H101        -0.9070    -0.7980    -4.0980 hc         1 DOA       0.037700
     37 H102        -0.7190     0.9550    -4.0960 hc         1 DOA       0.037700
     38 HA21         1.4130     0.7660    -5.2940 hc         1 DOA       0.014200
     39 HA22         1.2180    -1.0610    -5.2970 hc         1 DOA       0.014200
@<TRIPOS>BOND
     1     1     2 1   
     2     1    16 1   
     3     1    17 1   
     4     2     3 1   
     5     2    18 1   
     6     2    19 1   
     7     3     4 1   
     8     3    20 1   
     9     3    21 1   
    10     4     5 1   
    11     4    22 1   
    12     4    23 1   
    13     5     6 1   
    14     5    24 1   
    15     5    25 1   
    16     6     7 1   
    17     6    26 1   
    18     6    27 1   
    19     7     8 1   
    20     7    28 1   
    21     7    29 1   
    22     8     9 1   
    23     8    30 1   
    24     8    31 1   
    25     9    10 1   
    26     9    32 1   
    27     9    33 1   
    28    10    11 1   
    29    10    34 1   
    30    10    35 1   
    31    11    12 1   
    32    11    36 1   
    33    11    37 1   
    34    12    13 1   
    35    12    38 1   
    36    12    39 1   
    37    13    14 1   
    38    13    15 1   
@<TRIPOS>SUBSTRUCTURE
     1 DOA         1 TEMP              0 ****  ****    0 ROOT
