@<TRIPOS>MOLECULE
DOB
   16    16     1     0     0
SMALL
bcc


@<TRIPOS>ATOM
      1 C1           0.2540     0.0020     2.0730 c          1 DOB       0.936200
      2 O1          -0.7050    -0.5610     2.6490 o          1 DOB      -0.831300
      3 O2           1.2530     0.5050     2.6150 o          1 DOB      -0.831300
      4 C7           0.1940     0.0380     0.5600 ca         1 DOB      -0.226600
      5 C2          -1.0260     0.0600    -0.1280 ca         1 DOB       0.187100
      6 C3          -1.0700    -0.0210    -1.5130 ca         1 DOB      -0.227000
      7 C4           0.1120    -0.1010    -2.2440 ca         1 DOB       0.125100
      8 C5           1.3360    -0.1100    -1.5810 ca         1 DOB      -0.279000
      9 C6           1.3570    -0.0350    -0.1970 ca         1 DOB      -0.049000
     10 O3          -2.2000     0.2180     0.5360 oh         1 DOB      -0.544100
     11 O4           0.0090    -0.1710    -3.5870 oh         1 DOB      -0.516100
     12 H3          -2.0250     0.0020    -2.0240 ha         1 DOB       0.133000
     13 H5           2.2640    -0.1720    -2.1400 ha         1 DOB       0.106000
     14 H6           2.3130    -0.0430     0.3130 ha         1 DOB       0.138000
     15 HO2         -2.1690    -0.3410     1.3260 ho         1 DOB       0.471000
     16 HO4          0.8830    -0.2590    -3.9820 ho         1 DOB       0.406000
@<TRIPOS>BOND
     1     1     2 1   
     2     1     3 1   
     3     1     4 1   
     4     4     5 ar  
     5     4     9 ar  
     6     5     6 ar  
     7     5    10 1   
     8     6     7 ar  
     9     6    12 1   
    10     7     8 ar  
    11     7    11 1   
    12     8     9 ar  
    13     8    13 1   
    14     9    14 1   
    15    10    15 1   
    16    11    16 1   
@<TRIPOS>SUBSTRUCTURE
     1 DOB         1 TEMP              0 ****  ****    0 ROOT
