@<TRIPOS>MOLECULE
DOB
   16    16     1     0     0
SMALL
No Charge or Current Charge


@<TRIPOS>ATOM
      1 C1           0.2170    -0.0040     2.0690 c          1 DOB       0.725600
      2 O1          -0.8390    -0.0010     2.6880 o          1 DOB      -0.726000
      3 O2           1.3090     0.0200     2.6170 o          1 DOB      -0.726000
      4 C7           0.1610    -0.0380     0.5540 ca         1 DOB      -0.226600
      5 C2          -1.0700    -0.0660    -0.1420 ca         1 DOB       0.187100
      6 C3          -1.1030    -0.0980    -1.5440 ca         1 DOB      -0.209000
      7 C4           0.0900    -0.1020    -2.2730 ca         1 DOB       0.125100
      8 C5           1.3190    -0.0740    -1.6060 ca         1 DOB      -0.261000
      9 C6           1.3580    -0.0420    -0.2010 ca         1 DOB      -0.031000
     10 O3          -2.2460    -0.0640     0.5380 oh         1 DOB      -0.583100
     11 O4           0.0560    -0.1320    -3.6320 oh         1 DOB      -0.555100
     12 H3          -2.0570    -0.1190    -2.0630 ha         1 DOB       0.115000
     13 H5           2.2500    -0.0770    -2.1670 ha         1 DOB       0.088000
     14 H6           2.3260    -0.0210     0.2980 ha         1 DOB       0.120000
     15 HO2         -1.9730    -0.0390     1.4990 ho         1 DOB       0.510000
     16 HO4          0.9820    -0.1300    -3.9570 ho         1 DOB       0.445000
@<TRIPOS>BOND
     1     1     2 1   
     2     1     3 1   
     3     1     4 1   
     4     4     5 ar  
     5     4     9 ar  
     6     5     6 ar  
     7     5    10 1   
     8     6     7 ar  
     9     6    12 1   
    10     7     8 ar  
    11     7    11 1   
    12     8     9 ar  
    13     8    13 1   
    14     9    14 1   
    15    10    15 1   
    16    11    16 1   
@<TRIPOS>SUBSTRUCTURE
     1 DOB         1 TEMP              0 ****  ****    0 ROOT
