@<TRIPOS>MOLECULE
DOE
   80    81     1     0     0
SMALL
abcg2


@<TRIPOS>ATOM
      1 C1          -1.3750     2.3180     5.1030 c3         1 DOE       0.208500
      2 C2          -0.2350     2.9760     4.3050 c3         1 DOE       0.151800
      3 C3          -0.3900     3.3960     1.9430 c3         1 DOE       0.137300
      4 C4          -1.3080     2.2360     1.5220 c3         1 DOE       0.171800
      5 C5           0.1950     0.3940     1.0580 c3         1 DOE       0.212800
      6 C6          -0.4190    -0.9030     1.5700 c3         1 DOE       0.169800
      7 C7          -0.4470    -0.5670     3.9660 c3         1 DOE       0.137300
      8 C8          -1.3230    -0.1400     5.1720 c3         1 DOE       0.197800
      9 C10          0.3600     0.2150     7.7500 c          1 DOE       0.715000
     10 C12         -1.0340     6.3390     2.6920 c          1 DOE       0.715000
     11 C14         -0.2640     1.0890    -1.9400 c          1 DOE       0.708000
     12 C16         -3.1450    -2.2900     1.9420 c          1 DOE       0.715000
     13 C17         -2.0090     3.3470     6.0540 c3         1 DOE      -0.036100
     14 C18         -3.3370     2.9110     6.5970 ca         1 DOE      -0.033300
     15 C19         -4.5180     3.4780     6.1250 ca         1 DOE      -0.078500
     16 C20         -5.7550     3.0740     6.6010 ca         1 DOE      -0.141000
     17 C21         -5.8430     2.0750     7.5680 ca         1 DOE      -0.105000
     18 C22         -4.6730     1.4860     8.0410 ca         1 DOE      -0.141000
     19 C23         -3.4410     1.9050     7.5570 ca         1 DOE      -0.078500
     20 C24         -7.5150     1.1510     9.1480 c          1 DOE       0.602100
     21 C25         -9.0080     0.9320     9.2790 c3         1 DOE      -0.037400
     22 C26         -9.8590    -0.8930    11.3120 c3         1 DOE       0.014600
     23 C27         -8.7050    -0.9050    12.2990 c3         1 DOE       0.180600
     24 N1          -1.0100     1.1110     5.8210 n3         1 DOE      -0.756600
     25 N2          -0.7060     3.8920     3.2710 n3         1 DOE      -0.710600
     26 N3          -0.7730     1.3330     0.5250 n3         1 DOE      -0.691600
     27 N4          -1.2360    -0.8170     2.7690 n3         1 DOE      -0.666600
     28 N5          -7.1340     1.6950     7.9800 ns         1 DOE      -0.097000
     29 O1          -0.6800    -0.0610     8.3770 o          1 DOE      -0.759500
     30 O2           1.5210    -0.1280     8.0550 o          1 DOE      -0.759500
     31 O3          -2.0790     6.0300     2.0950 o          1 DOE      -0.751000
     32 O4          -0.5230     7.4790     2.7590 o          1 DOE      -0.751000
     33 O5          -0.6840    -0.0800    -1.8740 o          1 DOE      -0.756500
     34 O6           0.2280     1.6470    -2.9450 o          1 DOE      -0.756500
     35 O7          -3.6170    -1.3250     1.3210 o          1 DOE      -0.744000
     36 O8          -3.5420    -3.4770     1.8950 o          1 DOE      -0.744000
     37 O9          -6.7370     0.8450    10.0440 o          1 DOE      -0.615100
     38 O10         -8.0320     0.3180    12.4120 oh         1 DOE      -0.699000
     39 S1          -9.4040    -0.8200     9.5550 ss         1 DOE      -0.402000
     40 HC1         -2.1480     2.0420     4.3810 h1         1 DOE       0.086700
     41 HC21         0.4360     3.4970     4.9980 h1         1 DOE       0.019200
     42 HC22         0.3810     2.1940     3.8520 h1         1 DOE       0.019200
     43 HC31         0.6670     3.0790     1.8830 h1         1 DOE       0.012700
     44 HC32        -0.5010     4.2090     1.2250 h1         1 DOE       0.012700
     45 HC41        -1.5820     1.6290     2.3840 h1         1 DOE       0.065200
     46 HC42        -2.2460     2.6660     1.1510 h1         1 DOE       0.065200
     47 HC51         0.8410     0.8580     1.8200 h1         1 DOE      -0.000800
     48 HC52         0.8730     0.0990     0.2570 h1         1 DOE      -0.000800
     49 HC61        -1.0420    -1.2750     0.7570 h1         1 DOE       0.032700
     50 HC62         0.3990    -1.6370     1.7120 h1         1 DOE       0.032700
     51 HC71         0.2800     0.2200     3.7600 h1         1 DOE       0.012700
     52 HC72         0.1570    -1.4540     4.2310 h1         1 DOE       0.012700
     53 HC81        -2.3590    -0.0730     4.8300 h1         1 DOE       0.055200
     54 HC82        -1.3070    -0.9190     5.9380 h1         1 DOE       0.055200
     55 HC91         0.4300     2.1490     6.8880 h1         1 DOE       0.004200
     56 HC92         1.1130     0.9220     5.8560 h1         1 DOE       0.004200
     57 H111         0.8090     5.3870     3.2820 h1         1 DOE      -0.005800
     58 H112        -0.4040     5.5010     4.5360 h1         1 DOE      -0.005800
     59 H131         0.6030     2.5270    -0.5970 h1         1 DOE       0.001700
     60 H132        -1.0950     2.7700    -0.9160 h1         1 DOE       0.001700
     61 H151        -2.4510    -2.0440     3.9290 h1         1 DOE      -0.003800
     62 H152        -1.3260    -2.9260     2.9280 h1         1 DOE      -0.003800
     63 H171        -2.1330     4.2870     5.5100 hc         1 DOE       0.049700
     64 H172        -1.3100     3.5510     6.8720 hc         1 DOE       0.049700
     65 H19         -4.4770     4.2550     5.3710 ha         1 DOE       0.160500
     66 H20         -6.6560     3.5400     6.2210 ha         1 DOE       0.103500
     67 H22         -4.7070     0.6950     8.7730 ha         1 DOE       0.103500
     68 H23         -2.5430     1.4120     7.9090 ha         1 DOE       0.160500
     69 H251        -9.3830     1.5190    10.1190 h1         1 DOE       0.075200
     70 H252        -9.5480     1.2610     8.3920 h1         1 DOE       0.075200
     71 H261       -10.5600    -0.0840    11.5290 h1         1 DOE       0.056200
     72 H262       -10.4140    -1.8300    11.4010 h1         1 DOE       0.056200
     73 H271        -8.0270    -1.7300    12.0450 h1         1 DOE       0.033700
     74 H272        -9.1230    -1.1350    13.2840 h1         1 DOE       0.033700
     75 HN5         -7.8740     1.9490     7.3430 hn         1 DOE       0.137000
     76 H10         -7.5200     0.4690    11.5960 ho         1 DOE       0.502000
     77 C9           0.2530     1.1330     6.5120 c3         1 DOE       0.061800
     78 C11         -0.2700     5.2550     3.4770 c3         1 DOE       0.053800
     79 C13         -0.3580     1.9900    -0.6890 c3         1 DOE       0.053800
     80 C15         -1.9910    -2.0430     2.9340 c3         1 DOE       0.033800
@<TRIPOS>BOND
     1     1     2 1   
     2     1    13 1   
     3     1    24 1   
     4     1    40 1   
     5     2    25 1   
     6     2    41 1   
     7     2    42 1   
     8     3     4 1   
     9     3    25 1   
    10     3    43 1   
    11     3    44 1   
    12     4    26 1   
    13     4    45 1   
    14     4    46 1   
    15     5     6 1   
    16     5    26 1   
    17     5    47 1   
    18     5    48 1   
    19     6    27 1   
    20     6    49 1   
    21     6    50 1   
    22     7     8 1   
    23     7    27 1   
    24     7    51 1   
    25     7    52 1   
    26     8    24 1   
    27     8    53 1   
    28     8    54 1   
    29     9    29 1   
    30     9    30 1   
    31     9    77 1   
    32    10    31 1   
    33    10    32 1   
    34    10    78 1   
    35    11    33 1   
    36    11    34 1   
    37    11    79 1   
    38    12    35 1   
    39    12    36 1   
    40    12    80 1   
    41    13    14 1   
    42    13    63 1   
    43    13    64 1   
    44    14    15 ar  
    45    14    19 ar  
    46    15    16 ar  
    47    15    65 1   
    48    16    17 ar  
    49    16    66 1   
    50    17    18 ar  
    51    17    28 1   
    52    18    19 ar  
    53    18    67 1   
    54    19    68 1   
    55    20    21 1   
    56    20    28 1   
    57    20    37 2   
    58    21    39 1   
    59    21    69 1   
    60    21    70 1   
    61    22    23 1   
    62    22    39 1   
    63    22    71 1   
    64    22    72 1   
    65    23    38 1   
    66    23    73 1   
    67    23    74 1   
    68    24    77 1   
    69    25    78 1   
    70    26    79 1   
    71    27    80 1   
    72    28    75 1   
    73    38    76 1   
    74    55    77 1   
    75    56    77 1   
    76    57    78 1   
    77    58    78 1   
    78    59    79 1   
    79    60    79 1   
    80    61    80 1   
    81    62    80 1   
@<TRIPOS>SUBSTRUCTURE
     1 DOE         1 TEMP              0 ****  ****    0 ROOT
