@<TRIPOS>MOLECULE
DOE
   80    81     1     0     0
SMALL
No Charge or Current Charge


@<TRIPOS>ATOM
      1 C1          -1.5150     2.3970     5.2160 c3         1 DOE       0.208500
      2 C2          -0.3050     3.1410     4.5480 c3         1 DOE       0.151800
      3 C3          -0.4360     3.4500     2.0730 c3         1 DOE       0.137300
      4 C4          -1.3900     2.2840     1.6420 c3         1 DOE       0.171800
      5 C5           0.2090     0.5360     0.7950 c3         1 DOE       0.212800
      6 C6          -0.1690    -0.8900     1.3350 c3         1 DOE       0.169800
      7 C7          -0.3890    -0.3560     3.7750 c3         1 DOE       0.137300
      8 C8          -1.4000    -0.1230     4.9420 c3         1 DOE       0.197800
      9 C10          0.2520    -0.2200     7.6540 c          1 DOE       0.715000
     10 C12         -0.2970     6.5540     2.5560 c          1 DOE       0.715000
     11 C14         -0.5040     1.5610    -2.1420 c          1 DOE       0.708000
     12 C16         -2.2360    -3.1940     1.7370 c          1 DOE       0.715000
     13 C17         -2.2210     3.3420     6.2260 c3         1 DOE      -0.036100
     14 C18         -3.5770     2.8170     6.6880 ca         1 DOE      -0.033300
     15 C19         -4.7520     3.1930     6.0110 ca         1 DOE      -0.078500
     16 C20         -6.0020     2.7140     6.4410 ca         1 DOE      -0.141000
     17 C21         -6.1010     1.8570     7.5520 ca         1 DOE      -0.105000
     18 C22         -4.9200     1.4750     8.2260 ca         1 DOE      -0.141000
     19 C23         -3.6700     1.9540     7.7950 ca         1 DOE      -0.078500
     20 C24         -7.8630     0.6540     9.0010 c          1 DOE       0.602100
     21 C25         -9.3870     0.4140     8.9730 c3         1 DOE      -0.037400
     22 C26         -9.6910     0.2600    11.8260 c3         1 DOE       0.014600
     23 C27         -8.8540    -0.5250    12.8620 c3         1 DOE       0.180600
     24 N1          -1.1910     1.0620     5.8310 n3         1 DOE      -0.756600
     25 N2          -0.6480     4.0640     3.4210 n3         1 DOE      -0.710600
     26 N3          -0.9210     1.4700     0.4750 n3         1 DOE      -0.691600
     27 N4          -0.9950    -1.0050     2.5780 n3         1 DOE      -0.666600
     28 N5          -7.4020     1.4120     7.9280 ns         1 DOE      -0.097000
     29 O1          -0.2610    -0.1900     8.7670 o          1 DOE      -0.759500
     30 O2           0.9450    -1.1570     7.2720 o          1 DOE      -0.759500
     31 O3          -1.3480     7.1650     2.7150 o          1 DOE      -0.751000
     32 O4           0.5060     6.8410     1.6760 o          1 DOE      -0.751000
     33 O5          -1.4960     1.1280    -2.7180 o          1 DOE      -0.756500
     34 O6           0.6230     1.4760    -2.6160 o          1 DOE      -0.756500
     35 O7          -3.4470    -3.0210     1.6550 o          1 DOE      -0.744000
     36 O8          -1.6280    -3.9760     1.0150 o          1 DOE      -0.744000
     37 O9          -7.1520     0.2160     9.9030 o          1 DOE      -0.615100
     38 O10         -7.5540    -0.8420    12.3430 oh         1 DOE      -0.699000
     39 S1         -10.0200    -0.7430    10.2980 ss         1 DOE      -0.402000
     40 HC1         -2.2530     2.2340     4.4200 h1         1 DOE       0.086700
     41 HC21         0.2000     3.6990     5.3490 h1         1 DOE       0.019200
     42 HC22         0.4440     2.4190     4.2060 h1         1 DOE       0.019200
     43 HC31         0.6020     3.0980     2.0150 h1         1 DOE       0.012700
     44 HC32        -0.5350     4.2270     1.3040 h1         1 DOE       0.012700
     45 HC41        -1.5680     1.6270     2.4950 h1         1 DOE       0.065200
     46 HC42        -2.3650     2.7320     1.4080 h1         1 DOE       0.065200
     47 HC51         0.9050     1.0100     1.4980 h1         1 DOE      -0.000800
     48 HC52         0.7940     0.3570    -0.1160 h1         1 DOE      -0.000800
     49 HC61        -0.6970    -1.3910     0.5130 h1         1 DOE       0.032700
     50 HC62         0.7690    -1.4430     1.4790 h1         1 DOE       0.032700
     51 HC71         0.0300     0.6060     3.4800 h1         1 DOE       0.012700
     52 HC72         0.4540    -0.9540     4.1470 h1         1 DOE       0.012700
     53 HC81        -2.4000    -0.0360     4.4950 h1         1 DOE       0.055200
     54 HC82        -1.4280    -1.0390     5.5470 h1         1 DOE       0.055200
     55 HC91         0.0780     1.9080     7.3240 h1         1 DOE       0.004200
     56 HC92         0.9330     1.0670     6.0450 h1         1 DOE       0.004200
     57 H111         1.1440     5.2120     3.4860 h1         1 DOE      -0.005800
     58 H112        -0.1210     5.7790     4.5640 h1         1 DOE      -0.005800
     59 H131         0.1940     2.9310    -0.6080 h1         1 DOE       0.001700
     60 H132        -1.5390     2.9830    -0.8880 h1         1 DOE       0.001700
     61 H151        -2.0660    -2.4330     3.7470 h1         1 DOE      -0.003800
     62 H152        -0.5480    -3.0210     3.0930 h1         1 DOE      -0.003800
     63 H171        -2.3550     4.3240     5.7550 hc         1 DOE       0.049700
     64 H172        -1.5670     3.5150     7.0880 hc         1 DOE       0.049700
     65 H19         -4.6970     3.8570     5.1500 ha         1 DOE       0.160500
     66 H20         -6.8990     3.0170     5.9040 ha         1 DOE       0.103500
     67 H22         -4.9450     0.8050     9.0780 ha         1 DOE       0.103500
     68 H23         -2.7660     1.6450     8.3160 ha         1 DOE       0.160500
     69 H251        -9.8860     1.3870     9.0650 h1         1 DOE       0.075200
     70 H252        -9.6390    -0.0030     7.9900 h1         1 DOE       0.075200
     71 H261        -9.1740     1.1920    11.5640 h1         1 DOE       0.056200
     72 H262       -10.6550     0.5300    12.2780 h1         1 DOE       0.056200
     73 H271        -9.3910    -1.4440    13.1330 h1         1 DOE       0.033700
     74 H272        -8.7590     0.0820    13.7720 h1         1 DOE       0.033700
     75 HN5         -8.1300     1.7040     7.2890 hn         1 DOE       0.137000
     76 H10         -7.5110    -0.4740    11.4160 ho         1 DOE       0.502000
     77 C9           0.0460     1.0120     6.6910 c3         1 DOE       0.061800
     78 C11          0.0610     5.3850     3.5540 c3         1 DOE       0.053800
     79 C13         -0.6900     2.2970    -0.7600 c3         1 DOE       0.053800
     80 C15         -1.4340    -2.4180     2.8490 c3         1 DOE       0.033800
@<TRIPOS>BOND
     1     1     2 1   
     2     1    13 1   
     3     1    24 1   
     4     1    40 1   
     5     2    25 1   
     6     2    41 1   
     7     2    42 1   
     8     3     4 1   
     9     3    25 1   
    10     3    43 1   
    11     3    44 1   
    12     4    26 1   
    13     4    45 1   
    14     4    46 1   
    15     5     6 1   
    16     5    26 1   
    17     5    47 1   
    18     5    48 1   
    19     6    27 1   
    20     6    49 1   
    21     6    50 1   
    22     7     8 1   
    23     7    27 1   
    24     7    51 1   
    25     7    52 1   
    26     8    24 1   
    27     8    53 1   
    28     8    54 1   
    29     9    29 1   
    30     9    30 1   
    31     9    77 1   
    32    10    31 1   
    33    10    32 1   
    34    10    78 1   
    35    11    33 1   
    36    11    34 1   
    37    11    79 1   
    38    12    35 1   
    39    12    36 1   
    40    12    80 1   
    41    13    14 1   
    42    13    63 1   
    43    13    64 1   
    44    14    15 ar  
    45    14    19 ar  
    46    15    16 ar  
    47    15    65 1   
    48    16    17 ar  
    49    16    66 1   
    50    17    18 ar  
    51    17    28 1   
    52    18    19 ar  
    53    18    67 1   
    54    19    68 1   
    55    20    21 1   
    56    20    28 1   
    57    20    37 2   
    58    21    39 1   
    59    21    69 1   
    60    21    70 1   
    61    22    23 1   
    62    22    39 1   
    63    22    71 1   
    64    22    72 1   
    65    23    38 1   
    66    23    73 1   
    67    23    74 1   
    68    24    77 1   
    69    25    78 1   
    70    26    79 1   
    71    27    80 1   
    72    28    75 1   
    73    38    76 1   
    74    55    77 1   
    75    56    77 1   
    76    57    78 1   
    77    58    78 1   
    78    59    79 1   
    79    60    79 1   
    80    61    80 1   
    81    62    80 1   
@<TRIPOS>SUBSTRUCTURE
     1 DOE         1 TEMP              0 ****  ****    0 ROOT
