@<TRIPOS>MOLECULE
DOF
   67    68     1     0     0
SMALL
abcg2


@<TRIPOS>ATOM
      1 C1         -12.0140    14.3310    35.9550 c3         1 DOF       0.199500
      2 C2         -12.4570    13.0460    36.6580 c3         1 DOF       0.208800
      3 C3         -12.2630    11.5490    38.5320 c3         1 DOF       0.183800
      4 C4         -11.1450    10.6200    38.0620 c3         1 DOF       0.205800
      5 C5          -8.7550    10.4120    37.7110 c3         1 DOF       0.188800
      6 C6          -8.6180    11.1180    36.3650 c3         1 DOF       0.204800
      7 C7          -8.4840    13.1910    35.1430 c3         1 DOF       0.183800
      8 C8          -9.9610    13.4930    34.8920 c3         1 DOF       0.202800
      9 C10         -8.7600    16.2880    35.9470 c          1 DOF       0.692000
     10 C12        -12.5360    15.2940    39.0140 c          1 DOF       0.684000
     11 C14        -10.3590    11.2080    41.0640 c          1 DOF       0.691000
     12 C16         -6.4200    12.5700    38.2650 c          1 DOF       0.691000
     13 C17        -12.7840    14.4500    34.6000 c3         1 DOF      -0.113100
     14 C18        -14.1970    14.9070    34.7880 ca         1 DOF       0.042700
     15 C19        -15.2780    14.0300    34.6510 ca         1 DOF      -0.120000
     16 C20        -16.5780    14.4570    34.8620 ca         1 DOF      -0.042500
     17 C21        -16.7980    15.7840    35.2160 ca         1 DOF      -0.218200
     18 C22        -15.7450    16.6840    35.3590 ca         1 DOF      -0.042500
     19 C23        -14.4550    16.2370    35.1440 ca         1 DOF      -0.120000
     20 N1         -10.5580    14.4610    35.8110 n3         1 DOF      -0.590600
     21 N2         -12.1440    12.9400    38.0810 n3         1 DOF      -0.599600
     22 N3          -9.8140    10.9220    38.5850 n3         1 DOF      -0.608600
     23 N4          -8.1940    12.5160    36.4110 n3         1 DOF      -0.605600
     24 N5         -18.1610    16.2450    35.4370 no         1 DOF       0.688200
     25 O1          -8.4530    16.1200    37.1520 o          1 DOF      -0.712500
     26 O2          -8.0520    16.8580    35.0740 o          1 DOF      -0.712500
     27 O3         -11.3280    15.5050    39.2780 o          1 DOF      -0.719000
     28 O4         -13.4390    16.1690    38.9210 o          1 DOF      -0.719000
     29 O5         -10.1240    12.4390    41.1450 o          1 DOF      -0.728500
     30 O6         -11.0880    10.5400    41.8440 o          1 DOF      -0.728500
     31 O7          -7.1030    13.2550    39.0630 o          1 DOF      -0.719500
     32 O8          -5.4080    11.8780    38.5590 o          1 DOF      -0.719500
     33 O9         -19.0790    15.4380    35.3220 o          1 DOF      -0.457000
     34 O10        -18.3400    17.4240    35.7310 o          1 DOF      -0.457000
     35 HC1        -12.3210    15.1770    36.5670 h1         1 DOF       0.114700
     36 HC21       -12.0180    12.1980    36.1370 h1         1 DOF      -0.024300
     37 HC22       -13.5460    12.9540    36.5170 h1         1 DOF      -0.024300
     38 HC31       -12.2920    11.5520    39.6190 h1         1 DOF       0.008450
     39 HC32       -13.2180    11.1040    38.1960 h1         1 DOF       0.008450
     40 HC41       -11.1030    10.6400    36.9750 h1         1 DOF      -0.028300
     41 HC42       -11.4400     9.5910    38.3340 h1         1 DOF      -0.028300
     42 HC51        -7.8130    10.4890    38.2520 h1         1 DOF       0.003200
     43 HC52        -8.8990     9.3370    37.4970 h1         1 DOF       0.003200
     44 HC61        -9.5660    11.0630    35.8350 h1         1 DOF      -0.031800
     45 HC62        -7.9010    10.5260    35.7660 h1         1 DOF      -0.031800
     46 HC71        -7.9240    14.1230    35.1250 h1         1 DOF       0.008450
     47 HC72        -8.1230    12.5960    34.2840 h1         1 DOF       0.008450
     48 HC81       -10.5280    12.5660    34.9430 h1         1 DOF      -0.023300
     49 HC82       -10.0390    13.8440    33.8500 h1         1 DOF      -0.023300
     50 HC91       -10.2420    16.0210    34.4060 h1         1 DOF      -0.008300
     51 HC92       -10.8690    16.5060    35.9850 h1         1 DOF      -0.008300
     52 H111       -14.0320    13.8150    38.5020 h1         1 DOF      -0.003800
     53 H112       -13.0200    13.4390    39.8980 h1         1 DOF      -0.003800
     54 H131        -9.9470     9.3610    40.0130 h1         1 DOF      -0.007300
     55 H132        -8.5750    10.4670    40.1850 h1         1 DOF      -0.007300
     56 H151        -6.1780    11.8860    36.2250 h1         1 DOF      -0.009300
     57 H152        -6.4360    13.6200    36.4320 h1         1 DOF      -0.009300
     58 H171       -12.7630    13.4910    34.0800 hc         1 DOF       0.039200
     59 H172       -12.2600    15.1750    33.9760 hc         1 DOF       0.039200
     60 H19        -15.0950    13.0000    34.3770 ha         1 DOF       0.135000
     61 H20        -17.4120    13.7790    34.7550 ha         1 DOF       0.125500
     62 H22        -15.9420    17.7100    35.6320 ha         1 DOF       0.125500
     63 H23        -13.6290    16.9270    35.2540 ha         1 DOF       0.135000
     64 C9         -10.1680    15.8310    35.4870 c3         1 DOF       0.044800
     65 C11        -12.9960    13.8230    38.8750 c3         1 DOF       0.041800
     66 C13         -9.6400    10.4170    39.9450 c3         1 DOF       0.051800
     67 C15         -6.7810    12.6360    36.7600 c3         1 DOF       0.048800
@<TRIPOS>BOND
     1     1     2 1   
     2     1    13 1   
     3     1    20 1   
     4     1    35 1   
     5     2    21 1   
     6     2    36 1   
     7     2    37 1   
     8     3     4 1   
     9     3    21 1   
    10     3    38 1   
    11     3    39 1   
    12     4    22 1   
    13     4    40 1   
    14     4    41 1   
    15     5     6 1   
    16     5    22 1   
    17     5    42 1   
    18     5    43 1   
    19     6    23 1   
    20     6    44 1   
    21     6    45 1   
    22     7     8 1   
    23     7    23 1   
    24     7    46 1   
    25     7    47 1   
    26     8    20 1   
    27     8    48 1   
    28     8    49 1   
    29     9    25 1   
    30     9    26 1   
    31     9    64 1   
    32    10    27 1   
    33    10    28 1   
    34    10    65 1   
    35    11    29 1   
    36    11    30 1   
    37    11    66 1   
    38    12    31 1   
    39    12    32 1   
    40    12    67 1   
    41    13    14 1   
    42    13    58 1   
    43    13    59 1   
    44    14    15 ar  
    45    14    19 ar  
    46    15    16 ar  
    47    15    60 1   
    48    16    17 ar  
    49    16    61 1   
    50    17    18 ar  
    51    17    24 1   
    52    18    19 ar  
    53    18    62 1   
    54    19    63 1   
    55    20    64 1   
    56    21    65 1   
    57    22    66 1   
    58    23    67 1   
    59    24    33 1   
    60    24    34 1   
    61    50    64 1   
    62    51    64 1   
    63    52    65 1   
    64    53    65 1   
    65    54    66 1   
    66    55    66 1   
    67    56    67 1   
    68    57    67 1   
@<TRIPOS>SUBSTRUCTURE
     1 DOF         1 TEMP              0 ****  ****    0 ROOT
