@<TRIPOS>MOLECULE
DOF
   67    68     1     0     0
SMALL
No Charge or Current Charge


@<TRIPOS>ATOM
      1 C1         -11.9630    14.6620    35.9880 c3         1 DOF       0.199500
      2 C2         -12.4920    13.4150    36.7900 c3         1 DOF       0.208800
      3 C3         -12.2910    11.8940    38.7400 c3         1 DOF       0.183800
      4 C4         -11.3000    10.8080    38.1930 c3         1 DOF       0.205800
      5 C5          -8.9140    10.2940    37.7030 c3         1 DOF       0.188800
      6 C6          -8.7120    11.0630    36.3510 c3         1 DOF       0.204800
      7 C7          -8.4080    13.2310    35.1770 c3         1 DOF       0.183800
      8 C8          -9.8960    13.6710    34.9510 c3         1 DOF       0.202800
      9 C10         -8.4710    16.5000    35.7040 c          1 DOF       0.692000
     10 C12        -12.5430    15.7970    39.0690 c          1 DOF       0.684000
     11 C14        -10.5070    10.7470    41.2800 c          1 DOF       0.691000
     12 C16         -6.0240    11.8390    37.9840 c          1 DOF       0.691000
     13 C17        -12.7060    14.7930    34.6200 c3         1 DOF      -0.113100
     14 C18        -14.2130    14.9720    34.7640 ca         1 DOF       0.042700
     15 C19        -15.0950    13.9530    34.3580 ca         1 DOF      -0.120000
     16 C20        -16.4840    14.1140    34.4930 ca         1 DOF      -0.042500
     17 C21        -17.0160    15.3060    35.0360 ca         1 DOF      -0.218200
     18 C22        -16.1270    16.3290    35.4400 ca         1 DOF      -0.042500
     19 C23        -14.7390    16.1600    35.3020 ca         1 DOF      -0.120000
     20 N1         -10.4640    14.7280    35.8480 n3         1 DOF      -0.590600
     21 N2         -12.1260    13.2930    38.2370 n3         1 DOF      -0.599600
     22 N3          -9.8870    10.8630    38.6830 n3         1 DOF      -0.608600
     23 N4          -8.0970    12.4270    36.3980 n3         1 DOF      -0.605600
     24 N5         -18.4960    15.4830    35.1820 no         1 DOF       0.688200
     25 O1          -8.0380    16.6880    36.8350 o          1 DOF      -0.712500
     26 O2          -7.8010    16.6850    34.6950 o          1 DOF      -0.712500
     27 O3         -11.5180    16.2030    39.6010 o          1 DOF      -0.719000
     28 O4         -13.3750    16.5450    38.5700 o          1 DOF      -0.719000
     29 O5         -10.0930    11.7280    41.8860 o          1 DOF      -0.728500
     30 O6         -11.4810    10.1010    41.6490 o          1 DOF      -0.728500
     31 O7          -6.0930    12.5270    38.9960 o          1 DOF      -0.719500
     32 O8          -5.4230    10.7710    37.9470 o          1 DOF      -0.719500
     33 O9         -19.2360    14.5590    34.8170 o          1 DOF      -0.457000
     34 O10        -18.9170    16.5460    35.6560 o          1 DOF      -0.457000
     35 HC1        -12.2780    15.5350    36.5650 h1         1 DOF       0.114700
     36 HC21       -12.1750    12.5180    36.2460 h1         1 DOF      -0.024300
     37 HC22       -13.5880    13.4060    36.7340 h1         1 DOF      -0.024300
     38 HC31       -12.2310    11.8920    39.8320 h1         1 DOF       0.008450
     39 HC32       -13.3090    11.5590    38.4980 h1         1 DOF       0.008450
     40 HC41       -11.3250    10.8430    37.1000 h1         1 DOF      -0.028300
     41 HC42       -11.7120     9.8240    38.4530 h1         1 DOF      -0.028300
     42 HC51        -7.9370    10.1820    38.1840 h1         1 DOF       0.003200
     43 HC52        -9.2340     9.2740    37.4510 h1         1 DOF       0.003200
     44 HC61        -9.6840    11.1070    35.8500 h1         1 DOF      -0.031800
     45 HC62        -8.0890    10.4320    35.7030 h1         1 DOF      -0.031800
     46 HC71        -7.7800    14.1260    35.1600 h1         1 DOF       0.008450
     47 HC72        -8.1080    12.6460    34.2970 h1         1 DOF       0.008450
     48 HC81       -10.5230    12.7740    34.9830 h1         1 DOF      -0.023300
     49 HC82        -9.9700    14.0320    33.9160 h1         1 DOF      -0.023300
     50 HC91       -10.2560    16.3620    34.4910 h1         1 DOF      -0.008300
     51 HC92       -10.5430    16.8320    36.1540 h1         1 DOF      -0.008300
     52 H111       -13.9440    14.1400    38.9590 h1         1 DOF      -0.003800
     53 H112       -12.6930    13.9740    40.1720 h1         1 DOF      -0.003800
     54 H131        -9.9000     9.1530    39.9460 h1         1 DOF      -0.007300
     55 H132        -8.6370    10.3100    40.3110 h1         1 DOF      -0.007300
     56 H151        -6.1310    11.8620    35.8170 h1         1 DOF      -0.009300
     57 H152        -6.2360    13.4380    36.5720 h1         1 DOF      -0.009300
     58 H171       -12.4930    13.9110    34.0050 hc         1 DOF       0.039200
     59 H172       -12.3120    15.6500    34.0640 hc         1 DOF       0.039200
     60 H19        -14.7030    13.0280    33.9400 ha         1 DOF       0.135000
     61 H20        -17.1400    13.3060    34.1720 ha         1 DOF       0.125500
     62 H22        -16.5020    17.2600    35.8630 ha         1 DOF       0.125500
     63 H23        -14.0700    16.9570    35.6170 ha         1 DOF       0.135000
     64 C9          -9.9860    16.1220    35.5280 c3         1 DOF       0.044800
     65 C11        -12.8640    14.2600    39.1260 c3         1 DOF       0.041800
     66 C13         -9.6980    10.2290    40.0350 c3         1 DOF       0.051800
     67 C15         -6.6110    12.4080    36.6410 c3         1 DOF       0.048800
@<TRIPOS>BOND
     1     1     2 1   
     2     1    13 1   
     3     1    20 1   
     4     1    35 1   
     5     2    21 1   
     6     2    36 1   
     7     2    37 1   
     8     3     4 1   
     9     3    21 1   
    10     3    38 1   
    11     3    39 1   
    12     4    22 1   
    13     4    40 1   
    14     4    41 1   
    15     5     6 1   
    16     5    22 1   
    17     5    42 1   
    18     5    43 1   
    19     6    23 1   
    20     6    44 1   
    21     6    45 1   
    22     7     8 1   
    23     7    23 1   
    24     7    46 1   
    25     7    47 1   
    26     8    20 1   
    27     8    48 1   
    28     8    49 1   
    29     9    25 1   
    30     9    26 1   
    31     9    64 1   
    32    10    27 1   
    33    10    28 1   
    34    10    65 1   
    35    11    29 1   
    36    11    30 1   
    37    11    66 1   
    38    12    31 1   
    39    12    32 1   
    40    12    67 1   
    41    13    14 1   
    42    13    58 1   
    43    13    59 1   
    44    14    15 ar  
    45    14    19 ar  
    46    15    16 ar  
    47    15    60 1   
    48    16    17 ar  
    49    16    61 1   
    50    17    18 ar  
    51    17    24 1   
    52    18    19 ar  
    53    18    62 1   
    54    19    63 1   
    55    20    64 1   
    56    21    65 1   
    57    22    66 1   
    58    23    67 1   
    59    24    33 1   
    60    24    34 1   
    61    50    64 1   
    62    51    64 1   
    63    52    65 1   
    64    53    65 1   
    65    54    66 1   
    66    55    66 1   
    67    56    67 1   
    68    57    67 1   
@<TRIPOS>SUBSTRUCTURE
     1 DOF         1 TEMP              0 ****  ****    0 ROOT
