@<TRIPOS>MOLECULE
DOG
   62    66     1     0     0
SMALL
No Charge or Current Charge


@<TRIPOS>ATOM
      1 O23          0.9890    -0.5290    -7.0810 o          1 DOG      -0.492000
      2 C23          0.4390    -0.2010    -6.0420 c          1 DOG       0.648300
      3 C22          1.0820     0.3360    -4.8450 ce         1 DOG      -0.317200
      4 O21         -0.9110    -0.2770    -5.7930 os         1 DOG      -0.428100
      5 C21         -1.2040     0.2010    -4.4380 c5         1 DOG       0.172800
      6 C20          0.1690     0.5810    -3.9090 c2         1 DOG      -0.073400
      7 C17          0.4660     1.1160    -2.4980 c5         1 DOG      -0.010500
      8 C16         -0.6040     2.1620    -2.0230 c5         1 DOG      -0.071400
      9 C13          0.5050    -0.0440    -1.3780 c5         1 DOG      -0.011000
     10 C18          0.6140    -1.5400    -1.9140 c3         1 DOG      -0.070100
     11 C12          1.7400     0.2240    -0.4290 c6         1 DOG       0.172300
     12 O12          2.9860    -0.0730    -1.0750 oh         1 DOG      -0.657000
     13 C14         -0.8540     0.2070    -0.5970 c5         1 DOG       0.188000
     14 C15         -0.8950     1.7700    -0.5490 c5         1 DOG      -0.113400
     15 O14         -1.9790    -0.2670    -1.3460 oh         1 DOG      -0.665000
     16 C8          -0.9130    -0.5110     0.8070 c6         1 DOG      -0.073700
     17 C7          -2.2280    -0.1690     1.5830 c6         1 DOG      -0.073400
     18 C9           0.3560    -0.2270     1.6990 c6         1 DOG      -0.037700
     19 C11          1.6590    -0.5560     0.9040 c6         1 DOG      -0.111400
     20 C10          0.2810    -0.9550     3.1160 c6         1 DOG      -0.029000
     21 C19          0.3420    -2.5180     2.9600 c3         1 DOG      -0.087100
     22 C5          -1.0560    -0.5480     3.8460 c6         1 DOG      -0.049700
     23 C6          -2.2990    -0.8570     2.9660 c6         1 DOG      -0.070400
     24 C4          -1.0630     0.9480     4.3140 c6         1 DOG      -0.065400
     25 C3           0.1510     1.3110     5.2040 c6         1 DOG       0.172300
     26 O32          0.0490     0.6680     6.4800 oh         1 DOG      -0.660000
     27 C2           1.4750     0.9210     4.5030 c6         1 DOG      -0.109400
     28 C1           1.4740    -0.5670     4.0650 c6         1 DOG      -0.066400
     29 H22          2.1570     0.4820    -4.7800 ha         1 DOG       0.223000
     30 H211        -1.6820    -0.6040    -3.8670 h1         1 DOG       0.084700
     31 H212        -1.8930     1.0540    -4.5000 h1         1 DOG       0.084700
     32 H17          1.4410     1.6150    -2.5400 hc         1 DOG       0.071700
     33 H161        -0.2310     3.1890    -2.1030 hc         1 DOG       0.048200
     34 H162        -1.5270     2.1300    -2.6100 hc         1 DOG       0.048200
     35 H181         1.5220    -1.6910    -2.5090 hc         1 DOG       0.045033
     36 H182         0.6240    -2.2750    -1.1040 hc         1 DOG       0.045033
     37 H183        -0.2290    -1.8070    -2.5580 hc         1 DOG       0.045033
     38 H12          1.7520     1.2910    -0.1650 h1         1 DOG       0.025700
     39 H12O         3.6970     0.1630    -0.4410 ho         1 DOG       0.442000
     40 H151        -0.1590     2.2060     0.1330 hc         1 DOG       0.050700
     41 H152        -1.8690     2.1540    -0.2280 hc         1 DOG       0.050700
     42 H14O        -2.7750    -0.0230    -0.8310 ho         1 DOG       0.443000
     43 HC8         -0.9380    -1.5870     0.5960 hc         1 DOG       0.068700
     44 HC71        -3.1070    -0.4830     1.0040 hc         1 DOG       0.036700
     45 HC72        -2.3280     0.9160     1.7100 hc         1 DOG       0.036700
     46 HC9          0.3780     0.8520     1.8850 hc         1 DOG       0.043700
     47 H111         2.5380    -0.2820     1.5000 hc         1 DOG       0.050700
     48 H112         1.7440    -1.6330     0.7170 hc         1 DOG       0.050700
     49 H191         0.1800    -3.0170     3.9230 hc         1 DOG       0.036033
     50 H192        -0.4090    -2.9170     2.2720 hc         1 DOG       0.036033
     51 H193         1.3210    -2.8530     2.5990 hc         1 DOG       0.036033
     52 HC5         -1.1470    -1.1620     4.7530 hc         1 DOG       0.065700
     53 HC61        -2.4100    -1.9410     2.8320 hc         1 DOG       0.043700
     54 HC62        -3.2110    -0.5350     3.4870 hc         1 DOG       0.043700
     55 HC41        -1.9890     1.1580     4.8650 hc         1 DOG       0.046700
     56 HC42        -1.0730     1.6290     3.4540 hc         1 DOG       0.046700
     57 HC3          0.1510     2.4010     5.3530 h1         1 DOG       0.028700
     58 H32O         0.8450     0.9320     6.9890 ho         1 DOG       0.439000
     59 HC21         2.3220     1.1070     5.1770 hc         1 DOG       0.040700
     60 HC22         1.6390     1.5710     3.6340 hc         1 DOG       0.040700
     61 HC11         1.4270    -1.1890     4.9700 hc         1 DOG       0.044200
     62 HC12         2.4410    -0.8180     3.6120 hc         1 DOG       0.044200
@<TRIPOS>BOND
     1     1     2 2   
     2     2     3 1   
     3     2     4 1   
     4     3     6 2   
     5     3    29 1   
     6     4     5 1   
     7     5     6 1   
     8     5    30 1   
     9     5    31 1   
    10     6     7 1   
    11     7     8 1   
    12     7     9 1   
    13     7    32 1   
    14     8    14 1   
    15     8    33 1   
    16     8    34 1   
    17     9    10 1   
    18     9    11 1   
    19     9    13 1   
    20    10    35 1   
    21    10    36 1   
    22    10    37 1   
    23    11    12 1   
    24    11    19 1   
    25    11    38 1   
    26    12    39 1   
    27    13    14 1   
    28    13    15 1   
    29    13    16 1   
    30    14    40 1   
    31    14    41 1   
    32    15    42 1   
    33    16    17 1   
    34    16    18 1   
    35    16    43 1   
    36    17    23 1   
    37    17    44 1   
    38    17    45 1   
    39    18    19 1   
    40    18    20 1   
    41    18    46 1   
    42    19    47 1   
    43    19    48 1   
    44    20    21 1   
    45    20    22 1   
    46    20    28 1   
    47    21    49 1   
    48    21    50 1   
    49    21    51 1   
    50    22    23 1   
    51    22    24 1   
    52    22    52 1   
    53    23    53 1   
    54    23    54 1   
    55    24    25 1   
    56    24    55 1   
    57    24    56 1   
    58    25    26 1   
    59    25    27 1   
    60    25    57 1   
    61    26    58 1   
    62    27    28 1   
    63    27    59 1   
    64    27    60 1   
    65    28    61 1   
    66    28    62 1   
@<TRIPOS>SUBSTRUCTURE
     1 DOG         1 TEMP              0 ****  ****    0 ROOT
