@<TRIPOS>MOLECULE
DOG
   62    66     1     0     0
SMALL
bcc


@<TRIPOS>ATOM
      1 O23          0.6660    -0.2370    -7.1490 o          1 DOG      -0.567500
      2 C23          0.2800    -0.0270    -6.0270 c          1 DOG       0.723800
      3 C22          1.0150     0.4160    -4.8460 ce         1 DOG      -0.267200
      4 O21         -1.0100    -0.1820    -5.6860 os         1 DOG      -0.404900
      5 C21         -1.1880     0.1150    -4.3050 c5         1 DOG       0.149600
      6 C20          0.1700     0.5140    -3.8150 c2         1 DOG      -0.073400
      7 C17          0.5130     0.9780    -2.4390 c5         1 DOG      -0.010500
      8 C16         -0.4170     2.1080    -1.9270 c5         1 DOG      -0.071400
      9 C13          0.5060    -0.1210    -1.3190 c5         1 DOG      -0.011000
     10 C18          0.6130    -1.5510    -1.8460 c3         1 DOG      -0.070100
     11 C12          1.6980     0.1880    -0.3920 c6         1 DOG       0.149100
     12 O12          2.8840    -0.1340    -1.0900 oh         1 DOG      -0.594800
     13 C14         -0.8060     0.1630    -0.5450 c5         1 DOG       0.164800
     14 C15         -0.8760     1.6920    -0.5270 c5         1 DOG      -0.113400
     15 O14         -1.8530    -0.3210    -1.3740 oh         1 DOG      -0.602800
     16 C8          -0.8810    -0.5170     0.8340 c6         1 DOG      -0.073700
     17 C7          -2.1810    -0.1740     1.5650 c6         1 DOG      -0.073400
     18 C9           0.3480    -0.2140     1.7060 c6         1 DOG      -0.037700
     19 C11          1.6240    -0.5450     0.9390 c6         1 DOG      -0.111400
     20 C10          0.2780    -0.9140     3.0900 c6         1 DOG      -0.029000
     21 C19          0.3590    -2.4390     2.9440 c3         1 DOG      -0.087100
     22 C5          -1.0440    -0.5320     3.8000 c6         1 DOG      -0.049700
     23 C6          -2.2580    -0.8460     2.9300 c6         1 DOG      -0.070400
     24 C4          -1.0670     0.9320     4.2560 c6         1 DOG      -0.065400
     25 C3           0.1090     1.3120     5.1400 c6         1 DOG       0.149100
     26 O32         -0.0320     0.6260     6.3720 oh         1 DOG      -0.597800
     27 C2           1.4180     0.9610     4.4420 c6         1 DOG      -0.109400
     28 C1           1.4440    -0.4970     4.0060 c6         1 DOG      -0.066400
     29 H22          2.0730     0.6310    -4.8530 ha         1 DOG       0.173000
     30 H211        -1.5750    -0.7660    -3.7960 h1         1 DOG       0.084700
     31 H212        -1.9260     0.9130    -4.2030 h1         1 DOG       0.084700
     32 H17          1.5330     1.3580    -2.5180 hc         1 DOG       0.071700
     33 H161         0.1050     3.0640    -1.9160 hc         1 DOG       0.048200
     34 H162        -1.2780     2.2390    -2.5820 hc         1 DOG       0.048200
     35 H181         1.4400    -1.6510    -2.5470 hc         1 DOG       0.045033
     36 H182         0.7830    -2.2670    -1.0420 hc         1 DOG       0.045033
     37 H183        -0.2910    -1.8700    -2.3610 hc         1 DOG       0.045033
     38 H12          1.6900     1.2670    -0.1750 h1         1 DOG       0.025700
     39 H12O         3.6290     0.1090    -0.5320 ho         1 DOG       0.403000
     40 H151        -0.2270     2.1070     0.2450 hc         1 DOG       0.050700
     41 H152        -1.8820     2.0570    -0.3030 hc         1 DOG       0.050700
     42 H14O        -2.6730     0.1170    -1.1240 ho         1 DOG       0.404000
     43 HC8         -0.8970    -1.5970     0.6360 hc         1 DOG       0.068700
     44 HC71        -3.0450    -0.4870     0.9730 hc         1 DOG       0.036700
     45 HC72        -2.2670     0.9110     1.6830 hc         1 DOG       0.036700
     46 HC9          0.3550     0.8670     1.8900 hc         1 DOG       0.043700
     47 H111         2.5010    -0.2560     1.5260 hc         1 DOG       0.050700
     48 H112         1.7060    -1.6220     0.7710 hc         1 DOG       0.050700
     49 H191         0.1060    -2.9190     3.8920 hc         1 DOG       0.036033
     50 H192        -0.3120    -2.8420     2.1870 hc         1 DOG       0.036033
     51 H193         1.3690    -2.7600     2.6830 hc         1 DOG       0.036033
     52 HC5         -1.1060    -1.1530     4.7010 hc         1 DOG       0.065700
     53 HC61        -2.3500    -1.9280     2.7980 hc         1 DOG       0.043700
     54 HC62        -3.1700    -0.5280     3.4430 hc         1 DOG       0.043700
     55 HC41        -2.0050     1.1300     4.7850 hc         1 DOG       0.046700
     56 HC42        -1.0600     1.6080     3.3980 hc         1 DOG       0.046700
     57 HC3          0.0800     2.3980     5.3140 h1         1 DOG       0.028700
     58 H32O         0.7420     0.8170     6.9110 ho         1 DOG       0.400000
     59 HC21         2.2630     1.1660     5.1090 hc         1 DOG       0.040700
     60 HC22         1.5490     1.6310     3.5860 hc         1 DOG       0.040700
     61 HC11         1.4010    -1.1270     4.9010 hc         1 DOG       0.044200
     62 HC12         2.4020    -0.7310     3.5370 hc         1 DOG       0.044200
@<TRIPOS>BOND
     1     1     2 2   
     2     2     3 1   
     3     2     4 1   
     4     3     6 2   
     5     3    29 1   
     6     4     5 1   
     7     5     6 1   
     8     5    30 1   
     9     5    31 1   
    10     6     7 1   
    11     7     8 1   
    12     7     9 1   
    13     7    32 1   
    14     8    14 1   
    15     8    33 1   
    16     8    34 1   
    17     9    10 1   
    18     9    11 1   
    19     9    13 1   
    20    10    35 1   
    21    10    36 1   
    22    10    37 1   
    23    11    12 1   
    24    11    19 1   
    25    11    38 1   
    26    12    39 1   
    27    13    14 1   
    28    13    15 1   
    29    13    16 1   
    30    14    40 1   
    31    14    41 1   
    32    15    42 1   
    33    16    17 1   
    34    16    18 1   
    35    16    43 1   
    36    17    23 1   
    37    17    44 1   
    38    17    45 1   
    39    18    19 1   
    40    18    20 1   
    41    18    46 1   
    42    19    47 1   
    43    19    48 1   
    44    20    21 1   
    45    20    22 1   
    46    20    28 1   
    47    21    49 1   
    48    21    50 1   
    49    21    51 1   
    50    22    23 1   
    51    22    24 1   
    52    22    52 1   
    53    23    53 1   
    54    23    54 1   
    55    24    25 1   
    56    24    55 1   
    57    24    56 1   
    58    25    26 1   
    59    25    27 1   
    60    25    57 1   
    61    26    58 1   
    62    27    28 1   
    63    27    59 1   
    64    27    60 1   
    65    28    61 1   
    66    28    62 1   
@<TRIPOS>SUBSTRUCTURE
     1 DOG         1 TEMP              0 ****  ****    0 ROOT
