@<TRIPOS>MOLECULE
DOH
   15    14     1     0     0
SMALL
abcg2


@<TRIPOS>ATOM
      1 N            0.2620     1.7950     0.3300 n8         1 DOH      -0.999200
      2 CA          -0.3880     0.5110     0.5330 c3         1 DOH       0.031500
      3 C           -0.2140     0.0200     1.9860 c          1 DOH       0.732000
      4 O            0.6340     0.5890     2.7000 o          1 DOH      -0.765500
      5 OXT         -0.9400    -0.9400     2.3220 o          1 DOH      -0.765500
      6 CB           0.0880    -0.6000    -0.4200 c3         1 DOH       0.009300
      7 CG          -0.1880    -0.2340    -1.8920 c          1 DOH       0.678000
      8 OG1          1.4630    -0.8500    -0.2510 oh         1 DOH      -0.699000
      9 OD1          0.8310    -0.1380    -2.6180 o          1 DOH      -0.756500
     10 OD2         -1.3690    -0.0600    -2.2330 o          1 DOH      -0.756500
     11 HN1          0.2560     2.0400    -0.6530 hn         1 DOH       0.374000
     12 HN2          1.2350     1.7080     0.5930 hn         1 DOH       0.374000
     13 HA          -1.4610     0.6380     0.3510 h1         1 DOH       0.050700
     14 HB          -0.4890    -1.5050    -0.1860 h1         1 DOH       0.050700
     15 HG1          1.8230    -0.6240    -1.1270 ho         1 DOH       0.443000
@<TRIPOS>BOND
     1     1     2 1   
     2     1    11 1   
     3     1    12 1   
     4     2     3 1   
     5     2     6 1   
     6     2    13 1   
     7     3     4 1   
     8     3     5 1   
     9     6     7 1   
    10     6     8 1   
    11     6    14 1   
    12     7     9 1   
    13     7    10 1   
    14     8    15 1   
@<TRIPOS>SUBSTRUCTURE
     1 DOH         1 TEMP              0 ****  ****    0 ROOT
