@<TRIPOS>MOLECULE
DOH
   15    14     1     0     0
SMALL
No Charge or Current Charge


@<TRIPOS>ATOM
      1 N            0.4940     1.8610     0.4400 n8         1 DOH      -0.999200
      2 CA          -0.2880     0.5640     0.5320 c3         1 DOH       0.031500
      3 C           -0.5200    -0.0450     1.9810 c          1 DOH       0.732000
      4 O            0.3980    -0.0210     2.7940 o          1 DOH      -0.765500
      5 OXT         -1.6500    -0.4130     2.2790 o          1 DOH      -0.765500
      6 CB           0.2780    -0.5360    -0.4280 c3         1 DOH       0.009300
      7 CG          -0.3920    -0.4520    -1.8460 c          1 DOH       0.678000
      8 OG1          1.7340    -0.4800    -0.5080 oh         1 DOH      -0.699000
      9 OD1          0.2690     0.0200    -2.7630 o          1 DOH      -0.756500
     10 OD2         -1.4800    -0.9870    -2.0150 o          1 DOH      -0.756500
     11 HN1          0.6680     2.0660    -0.5500 hn         1 DOH       0.374000
     12 HN2          1.4340     1.6670     0.8050 hn         1 DOH       0.374000
     13 HA          -1.2990     0.7990     0.1690 h1         1 DOH       0.050700
     14 HB          -0.0240    -1.5120    -0.0240 h1         1 DOH       0.050700
     15 HG1          1.9190    -0.1810    -1.4300 ho         1 DOH       0.443000
@<TRIPOS>BOND
     1     1     2 1   
     2     1    11 1   
     3     1    12 1   
     4     2     3 1   
     5     2     6 1   
     6     2    13 1   
     7     3     4 1   
     8     3     5 1   
     9     6     7 1   
    10     6     8 1   
    11     6    14 1   
    12     7     9 1   
    13     7    10 1   
    14     8    15 1   
@<TRIPOS>SUBSTRUCTURE
     1 DOH         1 TEMP              0 ****  ****    0 ROOT
