@<TRIPOS>MOLECULE
DOJ
   57    59     1     0     0
SMALL
bcc


@<TRIPOS>ATOM
      1 FBC         -7.4700    -1.4270    -1.0880 f          1 DOJ      -0.234300
      2 CBB         -6.1460    -1.2670    -1.1470 c3         1 DOJ       0.719200
      3 FBD         -5.6300    -2.4320    -1.5680 f          1 DOJ      -0.234300
      4 FBE         -5.9030    -0.3740    -2.1190 f          1 DOJ      -0.234300
      5 CAZ         -5.5540    -0.8380     0.1600 ca         1 DOJ      -0.169300
      6 CBA         -4.1760    -0.6550     0.2110 ca         1 DOJ      -0.103000
      7 CAY         -6.3520    -0.6420     1.2760 ca         1 DOJ      -0.108000
      8 CAX         -5.7460    -0.2590     2.4650 ca         1 DOJ      -0.107000
      9 CAW         -4.3800    -0.0610     2.5300 ca         1 DOJ      -0.162000
     10 CAV         -3.5760    -0.2520     1.4020 ca         1 DOJ       0.085600
     11 NAU         -2.2040    -0.0760     1.5480 ns         1 DOJ      -0.498100
     12 CAS         -1.3100     0.2760     0.5600 c          1 DOJ       0.794100
     13 OAT         -1.6440     0.4490    -0.6010 o          1 DOJ      -0.603100
     14 NAR         -0.0420     0.4350     1.0150 ns         1 DOJ      -0.575900
     15 CAQ          1.0910     0.5330     0.1240 c6         1 DOJ       0.098700
     16 CAE          1.7540    -0.8290    -0.0810 c6         1 DOJ       0.128100
     17 CAF          2.9520    -0.6930    -1.0120 c6         1 DOJ       0.157800
     18 OAD          0.8180    -1.7280    -0.6330 os         1 DOJ      -0.433600
     19 CAB          0.4900    -2.8420     0.1520 c3         1 DOJ       0.339900
     20 OAC          1.5430    -3.7580     0.2240 oh         1 DOJ      -0.616800
     21 CAA         -0.7750    -3.4440    -0.4240 c3         1 DOJ      -0.122100
     22 CAP          2.1290     1.5220     0.6350 c6         1 DOJ      -0.084400
     23 CAO          3.3200     1.5700    -0.3090 c6         1 DOJ       0.165800
     24 NAG          3.9090     0.2530    -0.4750 n3         1 DOJ      -0.726600
     25 CAH          5.1210     0.2950    -1.2670 c3         1 DOJ       0.218100
     26 CAI          6.2500     1.0010    -0.5620 ca         1 DOJ      -0.090300
     27 CAJ          6.5280     0.7310     0.7770 ca         1 DOJ      -0.116500
     28 CAK          7.5890     1.3530     1.4180 ca         1 DOJ      -0.132000
     29 CAL          8.3910     2.2570     0.7290 ca         1 DOJ      -0.126000
     30 CAM          8.1200     2.5340    -0.6030 ca         1 DOJ      -0.132000
     31 CAN          7.0530     1.9110    -1.2410 ca         1 DOJ      -0.116500
     32 HBA1        -3.5710    -0.8290    -0.6660 ha         1 DOJ       0.176000
     33 HAY1        -7.4230    -0.7820     1.2400 ha         1 DOJ       0.151000
     34 HAX1        -6.3490    -0.1020     3.3490 ha         1 DOJ       0.138000
     35 HAW1        -3.9270     0.2510     3.4630 ha         1 DOJ       0.131000
     36 HAU1        -1.8800    -0.0310     2.5020 hn         1 DOJ       0.310500
     37 HAR1         0.1630     0.1950     1.9740 hn         1 DOJ       0.299500
     38 HAQ1         0.7200     0.8850    -0.8410 h1         1 DOJ       0.097700
     39 HAE1         2.1180    -1.1860     0.8920 h1         1 DOJ       0.055700
     40 HAF1         3.4340    -1.6690    -1.1140 h1         1 DOJ       0.046700
     41 HAF2         2.5940    -0.4010    -2.0170 h1         1 DOJ       0.046700
     42 HAB1         0.3180    -2.5310     1.1900 h2         1 DOJ       0.052700
     43 HAC1         1.6560    -4.1720    -0.6410 ho         1 DOJ       0.412000
     44 HAA3        -1.0790    -4.3110     0.1610 hc         1 DOJ       0.055033
     45 HAA1        -1.5910    -2.7220    -0.4080 hc         1 DOJ       0.055033
     46 HAA2        -0.6250    -3.7620    -1.4580 hc         1 DOJ       0.055033
     47 HAP2         1.6860     2.5160     0.7190 hc         1 DOJ       0.054700
     48 HAP1         2.4690     1.2310     1.6340 hc         1 DOJ       0.054700
     49 HAO1         3.0020     1.9930    -1.2790 h1         1 DOJ       0.042700
     50 HAO2         4.0750     2.2460     0.0960 h1         1 DOJ       0.042700
     51 HAH1         5.4250    -0.7370    -1.4680 h1         1 DOJ       0.040700
     52 HAH2         4.9570     0.7600    -2.2540 h1         1 DOJ       0.040700
     53 HAJ1         5.8970     0.0380     1.3190 ha         1 DOJ       0.135000
     54 HAK1         7.7920     1.1350     2.4590 ha         1 DOJ       0.130000
     55 HAL1         9.2180     2.7430     1.2300 ha         1 DOJ       0.130000
     56 HAM1         8.7330     3.2400    -1.1480 ha         1 DOJ       0.130000
     57 HAN1         6.8400     2.1390    -2.2790 ha         1 DOJ       0.135000
@<TRIPOS>BOND
     1     1     2 1   
     2     2     3 1   
     3     2     4 1   
     4     2     5 1   
     5     5     6 ar  
     6     5     7 ar  
     7     6    10 ar  
     8     6    32 1   
     9     7     8 ar  
    10     7    33 1   
    11     8     9 ar  
    12     8    34 1   
    13     9    10 ar  
    14     9    35 1   
    15    10    11 1   
    16    11    12 1   
    17    11    36 1   
    18    12    13 2   
    19    12    14 1   
    20    14    15 1   
    21    14    37 1   
    22    15    16 1   
    23    15    22 1   
    24    15    38 1   
    25    16    17 1   
    26    16    18 1   
    27    16    39 1   
    28    17    24 1   
    29    17    40 1   
    30    17    41 1   
    31    18    19 1   
    32    19    20 1   
    33    19    21 1   
    34    19    42 1   
    35    20    43 1   
    36    21    44 1   
    37    21    45 1   
    38    21    46 1   
    39    22    23 1   
    40    22    47 1   
    41    22    48 1   
    42    23    24 1   
    43    23    49 1   
    44    23    50 1   
    45    24    25 1   
    46    25    26 1   
    47    25    51 1   
    48    25    52 1   
    49    26    27 ar  
    50    26    31 ar  
    51    27    28 ar  
    52    27    53 1   
    53    28    29 ar  
    54    28    54 1   
    55    29    30 ar  
    56    29    55 1   
    57    30    31 ar  
    58    30    56 1   
    59    31    57 1   
@<TRIPOS>SUBSTRUCTURE
     1 DOJ         1 TEMP              0 ****  ****    0 ROOT
