@<TRIPOS>MOLECULE
DOJ
   57    59     1     0     0
SMALL
No Charge or Current Charge


@<TRIPOS>ATOM
      1 FBC         -7.9130    -0.6920    -0.8800 f          1 DOJ      -0.113000
      2 CBB         -6.5910    -0.9550    -0.9940 c3         1 DOJ       0.355300
      3 FBD         -6.4760    -2.2650    -1.3090 f          1 DOJ      -0.113000
      4 FBE         -6.1480    -0.2520    -2.0610 f          1 DOJ      -0.113000
      5 CAZ         -5.8050    -0.6180     0.2810 ca         1 DOJ      -0.169300
      6 CBA         -4.4030    -0.4570     0.2210 ca         1 DOJ      -0.085000
      7 CAY         -6.4570    -0.4900     1.5260 ca         1 DOJ      -0.090000
      8 CAX         -5.7200    -0.1970     2.6840 ca         1 DOJ      -0.089000
      9 CAW         -4.3280    -0.0310     2.6120 ca         1 DOJ      -0.144000
     10 CAV         -3.6570    -0.1550     1.3830 ca         1 DOJ      -0.007000
     11 NAU         -2.2450     0.0130     1.3860 ns         1 DOJ      -0.172000
     12 CAS         -1.3200     0.0950     0.3590 c          1 DOJ       0.660100
     13 OAT         -1.5870     0.0830    -0.8330 o          1 DOJ      -0.603100
     14 NAR         -0.0290     0.1940     0.8260 ns         1 DOJ      -0.508900
     15 CAQ          1.1840     0.2480    -0.0130 c6         1 DOJ       0.098700
     16 CAE          1.9130    -1.1300    -0.1630 c6         1 DOJ       0.151300
     17 CAF          3.2100    -0.9400    -1.0010 c6         1 DOJ       0.157800
     18 OAD          1.0800    -2.1390    -0.7910 os         1 DOJ      -0.480000
     19 CAB          0.2210    -2.9170     0.0450 c3         1 DOJ       0.386300
     20 OAC          1.0090    -3.8430     0.7700 oh         1 DOJ      -0.679000
     21 CAA         -0.7390    -3.6800    -0.8770 c3         1 DOJ      -0.122100
     22 CAP          2.1680     1.2850     0.5780 c6         1 DOJ      -0.084400
     23 CAO          3.4460     1.4030    -0.2820 c6         1 DOJ       0.165800
     24 NAG          4.1270     0.0860    -0.4200 n3         1 DOJ      -0.726600
     25 CAH          5.4090     0.1720    -1.1610 c3         1 DOJ       0.218100
     26 CAI          6.4420     1.0700    -0.4860 ca         1 DOJ      -0.090300
     27 CAJ          7.0010     0.6980     0.7530 ca         1 DOJ      -0.098500
     28 CAK          7.9520     1.5220     1.3800 ca         1 DOJ      -0.114000
     29 CAL          8.3510     2.7240     0.7710 ca         1 DOJ      -0.108000
     30 CAM          7.7970     3.1020    -0.4640 ca         1 DOJ      -0.114000
     31 CAN          6.8450     2.2780    -1.0910 ca         1 DOJ      -0.098500
     32 HBA1        -3.9070    -0.5810    -0.7370 ha         1 DOJ       0.158000
     33 HAY1        -7.5340    -0.6210     1.6070 ha         1 DOJ       0.133000
     34 HAX1        -6.2290    -0.1000     3.6410 ha         1 DOJ       0.120000
     35 HAW1        -3.7700     0.1940     3.5180 ha         1 DOJ       0.113000
     36 HAU1        -1.8460     0.0700     2.3130 hn         1 DOJ       0.144000
     37 HAR1         0.0890     0.2080     1.8310 hn         1 DOJ       0.299500
     38 HAQ1         0.8980     0.5880    -1.0200 h1         1 DOJ       0.097700
     39 HAE1         2.2130    -1.4830     0.8350 h1         1 DOJ       0.055700
     40 HAF1         3.7240    -1.9100    -1.0620 h1         1 DOJ       0.046700
     41 HAF2         2.9310    -0.6610    -2.0280 h1         1 DOJ       0.046700
     42 HAB1        -0.3520    -2.3020     0.7470 h2         1 DOJ       0.052700
     43 HAC1         1.6270    -4.2150     0.1080 ho         1 DOJ       0.451000
     44 HAA3        -1.3990    -4.3290    -0.2900 hc         1 DOJ       0.055033
     45 HAA1        -1.3650    -2.9750    -1.4360 hc         1 DOJ       0.055033
     46 HAA2        -0.1880    -4.3000    -1.5950 hc         1 DOJ       0.055033
     47 HAP2         1.6810     2.2670     0.6420 hc         1 DOJ       0.054700
     48 HAP1         2.4430     1.0020     1.6040 hc         1 DOJ       0.054700
     49 HAO1         3.1800     1.8020    -1.2720 h1         1 DOJ       0.042700
     50 HAO2         4.1140     2.1370     0.1920 h1         1 DOJ       0.042700
     51 HAH1         5.8490    -0.8300    -1.2540 h1         1 DOJ       0.040700
     52 HAH2         5.2280     0.5330    -2.1830 h1         1 DOJ       0.040700
     53 HAJ1         6.6920    -0.2290     1.2300 ha         1 DOJ       0.117000
     54 HAK1         8.3780     1.2300     2.3370 ha         1 DOJ       0.112000
     55 HAL1         9.0860     3.3630     1.2560 ha         1 DOJ       0.112000
     56 HAM1         8.1040     4.0330    -0.9350 ha         1 DOJ       0.112000
     57 HAN1         6.4210     2.5790    -2.0460 ha         1 DOJ       0.117000
@<TRIPOS>BOND
     1     1     2 1   
     2     2     3 1   
     3     2     4 1   
     4     2     5 1   
     5     5     6 ar  
     6     5     7 ar  
     7     6    10 ar  
     8     6    32 1   
     9     7     8 ar  
    10     7    33 1   
    11     8     9 ar  
    12     8    34 1   
    13     9    10 ar  
    14     9    35 1   
    15    10    11 1   
    16    11    12 1   
    17    11    36 1   
    18    12    13 2   
    19    12    14 1   
    20    14    15 1   
    21    14    37 1   
    22    15    16 1   
    23    15    22 1   
    24    15    38 1   
    25    16    17 1   
    26    16    18 1   
    27    16    39 1   
    28    17    24 1   
    29    17    40 1   
    30    17    41 1   
    31    18    19 1   
    32    19    20 1   
    33    19    21 1   
    34    19    42 1   
    35    20    43 1   
    36    21    44 1   
    37    21    45 1   
    38    21    46 1   
    39    22    23 1   
    40    22    47 1   
    41    22    48 1   
    42    23    24 1   
    43    23    49 1   
    44    23    50 1   
    45    24    25 1   
    46    25    26 1   
    47    25    51 1   
    48    25    52 1   
    49    26    27 ar  
    50    26    31 ar  
    51    27    28 ar  
    52    27    53 1   
    53    28    29 ar  
    54    28    54 1   
    55    29    30 ar  
    56    29    55 1   
    57    30    31 ar  
    58    30    56 1   
    59    31    57 1   
@<TRIPOS>SUBSTRUCTURE
     1 DOJ         1 TEMP              0 ****  ****    0 ROOT
