@<TRIPOS>MOLECULE
DOK
   51    54     1     0     0
SMALL
No Charge or Current Charge


@<TRIPOS>ATOM
      1 C11         -5.0390    -0.4940    -0.5230 ca         1 DOK       0.050600
      2 C15         -6.8930    -2.0170    -0.2910 ca         1 DOK      -0.111500
      3 C16         -6.1170    -2.8040     0.5930 ca         1 DOK      -0.111500
      4 C17         -4.7960    -2.4240     0.9130 ca         1 DOK      -0.097500
      5 C18          2.2060     1.6470    -0.4060 c3         1 DOK      -0.087400
      6 C19          3.6390    -0.0340     0.8930 ca         1 DOK      -0.094500
      7 C20          2.9370    -0.6040    -1.3650 ca         1 DOK      -0.094500
      8 C21          3.1700     2.8730    -0.3020 c3         1 DOK      -0.045700
      9 C22          4.3120    -1.2650     0.9930 ca         1 DOK      -0.103000
     10 C23          3.6100    -1.8340    -1.2630 ca         1 DOK      -0.103000
     11 C24          4.3450     2.7780    -1.3080 c3         1 DOK      -0.091600
     12 C25          2.4200     4.2160    -0.4820 c3         1 DOK      -0.091600
     13 C26          4.2960    -2.1630    -0.0840 ca         1 DOK       0.121000
     14 C1          -0.5430     0.3320    -0.7570 c6         1 DOK       0.100000
     15 C2          -1.9550     0.3710    -1.3840 c6         1 DOK      -0.116400
     16 C3          -3.0590     0.4630    -0.3170 c5         1 DOK       0.394000
     17 C4          -2.7900     1.7100     0.5420 c6         1 DOK      -0.116400
     18 C5          -1.3850     1.6730     1.1830 c6         1 DOK       0.100000
     19 N6          -0.2750     1.4420     0.2100 n          1 DOK      -0.409800
     20 C7           1.0520     1.7000     0.6360 c          1 DOK       0.614100
     21 O8           1.2790     1.9720     1.8100 o          1 DOK      -0.606100
     22 C9           2.9430     0.3060    -0.2870 ca         1 DOK      -0.078300
     23 O10         -4.3650     0.5940    -0.9750 os         1 DOK      -0.343100
     24 C12         -4.2900    -1.2550     0.3300 ca         1 DOK       0.050600
     25 O13         -3.0480    -0.7430     0.5250 os         1 DOK      -0.343100
     26 C14         -6.3530    -0.8430    -0.8610 ca         1 DOK      -0.097500
     27 Cl           5.1380    -3.7020     0.0420 cl         1 DOK      -0.204000
     28 H1          -7.9110    -2.3170    -0.5320 ha         1 DOK       0.119000
     29 H2          -6.5400    -3.7070     1.0290 ha         1 DOK       0.119000
     30 H3          -4.1860    -3.0170     1.5900 ha         1 DOK       0.132000
     31 H4           1.7540     1.6910    -1.4010 hc         1 DOK       0.060700
     32 H5           3.6620     0.6530     1.7360 ha         1 DOK       0.124500
     33 H6           2.4160    -0.3600    -2.2890 ha         1 DOK       0.124500
     34 H7           3.6100     2.8810     0.7040 hc         1 DOK       0.072700
     35 H8           4.8460    -1.5210     1.9050 ha         1 DOK       0.130500
     36 H9           3.6020    -2.5300    -2.0980 ha         1 DOK       0.130500
     37 H10          3.9720     2.7230    -2.3380 hc         1 DOK       0.036033
     38 H11          4.9970     3.6550    -1.2260 hc         1 DOK       0.036033
     39 H12          4.9610     1.8910    -1.1180 hc         1 DOK       0.036033
     40 H13          1.6490     4.3490     0.2860 hc         1 DOK       0.036033
     41 H14          3.1140     5.0610    -0.4010 hc         1 DOK       0.036033
     42 H15          1.9370     4.2640    -1.4660 hc         1 DOK       0.036033
     43 H16         -0.4120    -0.6240    -0.2290 h1         1 DOK       0.066450
     44 H17          0.1820     0.3370    -1.5790 h1         1 DOK       0.066450
     45 H18         -2.0290     1.2330    -2.0600 hc         1 DOK       0.071950
     46 H19         -2.1110    -0.5230    -2.0010 hc         1 DOK       0.071950
     47 H20         -2.8820     2.6100    -0.0810 hc         1 DOK       0.071950
     48 H21         -3.5540     1.7920     1.3260 hc         1 DOK       0.071950
     49 H22         -1.2180     2.6250     1.7080 h1         1 DOK       0.066450
     50 H23         -1.3560     0.8780     1.9420 h1         1 DOK       0.066450
     51 H24         -6.9360    -0.2280    -1.5410 ha         1 DOK       0.132000
@<TRIPOS>BOND
     1     1    23 1   
     2     1    24 ar  
     3     1    26 ar  
     4     2     3 ar  
     5     2    26 ar  
     6     2    28 1   
     7     3     4 ar  
     8     3    29 1   
     9     4    24 ar  
    10     4    30 1   
    11     5     8 1   
    12     5    20 1   
    13     5    22 1   
    14     5    31 1   
    15     6     9 ar  
    16     6    22 ar  
    17     6    32 1   
    18     7    10 ar  
    19     7    22 ar  
    20     7    33 1   
    21     8    11 1   
    22     8    12 1   
    23     8    34 1   
    24     9    13 ar  
    25     9    35 1   
    26    10    13 ar  
    27    10    36 1   
    28    11    37 1   
    29    11    38 1   
    30    11    39 1   
    31    12    40 1   
    32    12    41 1   
    33    12    42 1   
    34    13    27 1   
    35    14    15 1   
    36    14    19 1   
    37    14    43 1   
    38    14    44 1   
    39    15    16 1   
    40    15    45 1   
    41    15    46 1   
    42    16    17 1   
    43    16    23 1   
    44    16    25 1   
    45    17    18 1   
    46    17    47 1   
    47    17    48 1   
    48    18    19 1   
    49    18    49 1   
    50    18    50 1   
    51    19    20 1   
    52    20    21 2   
    53    24    25 1   
    54    26    51 1   
@<TRIPOS>SUBSTRUCTURE
     1 DOK         1 TEMP              0 ****  ****    0 ROOT
