@<TRIPOS>MOLECULE
DOK
   51    54     1     0     0
SMALL
abcg2


@<TRIPOS>ATOM
      1 C11         -4.9740     0.0180    -0.4820 ca         1 DOK       0.050600
      2 C15         -7.1790    -0.8070    -0.2880 ca         1 DOK      -0.111500
      3 C16         -6.6950    -1.9640     0.3000 ca         1 DOK      -0.111500
      4 C17         -5.3230    -2.1540     0.5110 ca         1 DOK      -0.097500
      5 C18          2.0590     1.4280    -0.4990 c3         1 DOK      -0.087400
      6 C19          3.7820     0.3020     0.9800 ca         1 DOK      -0.094500
      7 C20          3.3580    -0.6230    -1.1830 ca         1 DOK      -0.094500
      8 C21          2.6900     2.8240    -0.6610 c3         1 DOK      -0.045700
      9 C22          4.7320    -0.6780     1.2200 ca         1 DOK      -0.103000
     10 C23          4.3060    -1.6110    -0.9620 ca         1 DOK      -0.103000
     11 C24          3.8170     2.7950    -1.6890 c3         1 DOK      -0.091600
     12 C25          1.6320     3.8410    -1.0830 c3         1 DOK      -0.091600
     13 C26          4.9860    -1.6290     0.2440 ca         1 DOK       0.121000
     14 C1          -0.3520    -0.2920    -0.5870 c6         1 DOK       0.100000
     15 C2          -1.6490     0.1870    -1.2340 c6         1 DOK      -0.116400
     16 C3          -2.7660     0.2560    -0.2110 c5         1 DOK       0.394000
     17 C4          -2.3530     1.0410     1.0250 c6         1 DOK      -0.116400
     18 C5          -1.0300     0.5250     1.5800 c6         1 DOK       0.100000
     19 N6          -0.0100     0.5490     0.5440 n          1 DOK      -0.409800
     20 C7           1.0310     1.4090     0.6320 c          1 DOK       0.614100
     21 O8           1.1930     2.1190     1.6160 o          1 DOK      -0.606100
     22 C9           3.0800     0.3450    -0.2230 ca         1 DOK      -0.078300
     23 O10         -3.9370     0.8320    -0.7940 os         1 DOK      -0.343100
     24 C12         -4.4890    -1.1400     0.1060 ca         1 DOK       0.050600
     25 O13         -3.1380    -1.0770     0.1730 os         1 DOK      -0.343100
     26 C14         -6.3160     0.2190    -0.6940 ca         1 DOK      -0.097500
     27 CL           6.1690    -2.8620     0.5390 cl         1 DOK      -0.204000
     28 H1          -8.2440    -0.6860    -0.4360 ha         1 DOK       0.119000
     29 H2          -7.3850    -2.7390     0.6070 ha         1 DOK       0.119000
     30 H3          -4.9400    -3.0560     0.9670 ha         1 DOK       0.132000
     31 H4           1.5850     1.2000    -1.4570 hc         1 DOK       0.060700
     32 H5           3.5940     1.0410     1.7490 ha         1 DOK       0.124500
     33 H6           2.8310    -0.6070    -2.1300 ha         1 DOK       0.124500
     34 H7           3.1090     3.1320     0.3000 hc         1 DOK       0.072700
     35 H8           5.2680    -0.6970     2.1590 ha         1 DOK       0.130500
     36 H9           4.5100    -2.3530    -1.7220 ha         1 DOK       0.130500
     37 H10          3.4630     2.4340    -2.6570 hc         1 DOK       0.036033
     38 H11          4.2150     3.8000    -1.8380 hc         1 DOK       0.036033
     39 H12          4.6460     2.1590    -1.3780 hc         1 DOK       0.036033
     40 H13          0.8220     3.9260    -0.3590 hc         1 DOK       0.036033
     41 H14          2.0760     4.8320    -1.1930 hc         1 DOK       0.036033
     42 H15          1.1950     3.5690    -2.0460 hc         1 DOK       0.036033
     43 H16         -0.4600    -1.3210    -0.2330 h1         1 DOK       0.066450
     44 H17          0.4370    -0.3110    -1.3290 h1         1 DOK       0.066450
     45 H18         -1.4960     1.1850    -1.6540 hc         1 DOK       0.071950
     46 H19         -1.9300    -0.4790    -2.0520 hc         1 DOK       0.071950
     47 H20         -2.2460     2.0930     0.7520 hc         1 DOK       0.071950
     48 H21         -3.1310     0.9770     1.7900 hc         1 DOK       0.071950
     49 H22         -0.7130     1.1350     2.4210 h1         1 DOK       0.066450
     50 H23         -1.1370    -0.5000     1.9450 h1         1 DOK       0.066450
     51 H24         -6.6900     1.1230    -1.1540 ha         1 DOK       0.132000
@<TRIPOS>BOND
     1     1    23 1   
     2     1    24 ar  
     3     1    26 ar  
     4     2     3 ar  
     5     2    26 ar  
     6     2    28 1   
     7     3     4 ar  
     8     3    29 1   
     9     4    24 ar  
    10     4    30 1   
    11     5     8 1   
    12     5    20 1   
    13     5    22 1   
    14     5    31 1   
    15     6     9 ar  
    16     6    22 ar  
    17     6    32 1   
    18     7    10 ar  
    19     7    22 ar  
    20     7    33 1   
    21     8    11 1   
    22     8    12 1   
    23     8    34 1   
    24     9    13 ar  
    25     9    35 1   
    26    10    13 ar  
    27    10    36 1   
    28    11    37 1   
    29    11    38 1   
    30    11    39 1   
    31    12    40 1   
    32    12    41 1   
    33    12    42 1   
    34    13    27 1   
    35    14    15 1   
    36    14    19 1   
    37    14    43 1   
    38    14    44 1   
    39    15    16 1   
    40    15    45 1   
    41    15    46 1   
    42    16    17 1   
    43    16    23 1   
    44    16    25 1   
    45    17    18 1   
    46    17    47 1   
    47    17    48 1   
    48    18    19 1   
    49    18    49 1   
    50    18    50 1   
    51    19    20 1   
    52    20    21 2   
    53    24    25 1   
    54    26    51 1   
@<TRIPOS>SUBSTRUCTURE
     1 DOK         1 TEMP              0 ****  ****    0 ROOT
