@<TRIPOS>MOLECULE
DOL
   98   100     1     0     0
SMALL
No Charge or Current Charge


@<TRIPOS>ATOM
      1 O7           0.3970    -0.9960    -1.3760 o          1 DOL      -0.564100
      2 C6          -0.3720    -0.1680    -0.9000 c          1 DOL       0.561600
      3 N5          -0.3500     0.0410     0.5060 n          1 DOL      -0.406800
      4 C4          -1.4730     0.5820     1.3120 c5         1 DOL       0.120000
      5 C3          -1.2170    -0.0660     2.6920 c5         1 DOL      -0.071400
      6 C2           0.3280     0.0470     2.7520 c5         1 DOL      -0.294700
      7 S39          1.0340    -1.0530     4.0960 s6         1 DOL       1.068000
      8 O41          2.4700    -0.7760     4.2070 o          1 DOL      -0.499000
      9 O40          0.6030    -2.4340     3.8470 o          1 DOL      -0.499000
     10 C42          0.2770    -0.5360     5.6410 c3         1 DOL      -0.298400
     11 C43          0.8060    -1.3570     6.8280 c3         1 DOL       0.197800
     12 N44          0.3330    -0.8650     8.1520 n3         1 DOL      -0.729600
     13 C47         -1.1520    -0.9290     8.2930 c3         1 DOL       0.170300
     14 C48         -1.7260    -0.2330     9.5460 c3         1 DOL      -0.090100
     15 C45          1.0440    -1.5130     9.2930 c3         1 DOL       0.170300
     16 C46          2.5710    -1.2920     9.3310 c3         1 DOL      -0.090100
     17 C1           0.7530    -0.5100     1.3550 c5         1 DOL       0.094700
     18 C8          -1.3480     0.6060    -1.7620 cc         1 DOL       0.188500
     19 C12         -2.0940     1.7000    -1.3950 cd         1 DOL       0.135900
     20 O11         -2.8420     2.1470    -2.4390 os         1 DOL      -0.250000
     21 N9          -1.5940     0.3660    -3.0980 nc         1 DOL      -0.616000
     22 C10         -2.4890     1.2790    -3.4280 cd         1 DOL       0.460300
     23 C13         -3.0520     1.4500    -4.7970 c3         1 DOL      -0.211700
     24 C14         -4.2560     0.5640    -5.0920 c          1 DOL       0.591100
     25 O15         -4.9980     0.1700    -4.2020 o          1 DOL      -0.499100
     26 C16         -4.5700     0.2970    -6.5700 c3         1 DOL      -0.222400
     27 C17         -4.0160    -1.0420    -7.0920 c3         1 DOL       0.239500
     28 O18         -4.7370    -2.1330    -6.5310 oh         1 DOL      -0.641000
     29 C19         -2.5160    -1.1770    -6.8930 c2         1 DOL      -0.275200
     30 C20         -1.7830    -1.7760    -5.9170 ce         1 DOL      -0.003200
     31 C21         -2.3810    -2.4820    -4.7020 c3         1 DOL      -0.071900
     32 C22         -0.3110    -1.6620    -5.9800 ce         1 DOL      -0.191000
     33 C23          0.5870    -2.3200    -5.2090 c2         1 DOL      -0.205200
     34 C24          2.0850    -2.1450    -5.2810 c3         1 DOL       0.138200
     35 N25          2.5840    -1.5800    -4.0310 ns         1 DOL      -0.493900
     36 C26          2.6000    -0.2390    -3.7240 c          1 DOL       0.617300
     37 O27          2.2070     0.6240    -4.4960 o          1 DOL      -0.615100
     38 C28          3.2170     0.0680    -2.4030 ce         1 DOL      -0.274200
     39 C29          3.5090     1.3170    -1.9680 c2         1 DOL      -0.150200
     40 C30          4.2500     1.6410    -0.6790 c3         1 DOL      -0.058500
     41 C31          5.4380     2.5920    -0.9580 c3         1 DOL      -0.084100
     42 C32          3.3620     2.1010     0.5360 c3         1 DOL       0.195300
     43 C33          2.9110     3.6010     0.5630 c3         1 DOL      -0.054700
     44 C35          2.0370     4.0340    -0.6420 c3         1 DOL      -0.085600
     45 C34          2.1980     3.9460     1.8950 c3         1 DOL      -0.085600
     46 O36          2.1530     1.3180     0.6400 os         1 DOL      -0.440100
     47 C37          2.1930    -0.0050     1.0120 c          1 DOL       0.580100
     48 O38          3.2150    -0.6730     1.0870 o          1 DOL      -0.461000
     49 HC41        -2.4580     0.3050     0.9140 h1         1 DOL       0.054200
     50 HC42        -1.4030     1.6740     1.3920 h1         1 DOL       0.054200
     51 HC31        -1.5650    -1.1070     2.7050 hc         1 DOL       0.069700
     52 HC3A        -1.7260     0.4670     3.5030 hc         1 DOL       0.069700
     53 HC2          0.6730     1.0720     2.9330 h1         1 DOL       0.107700
     54 H421        -0.8000    -0.6700     5.5110 h1         1 DOL       0.100200
     55 H422         0.5140     0.5250     5.7680 h1         1 DOL       0.100200
     56 H431         1.9020    -1.3120     6.7830 h1         1 DOL       0.053700
     57 H432         0.5240    -2.4120     6.6940 h1         1 DOL       0.053700
     58 H471        -1.4870    -1.9750     8.2890 h1         1 DOL       0.031450
     59 H472        -1.6310    -0.4400     7.4360 h1         1 DOL       0.031450
     60 H481        -2.8180    -0.1750     9.4730 hc         1 DOL       0.038200
     61 H482        -1.4860    -0.7870    10.4600 hc         1 DOL       0.038200
     62 H483        -1.3350     0.7870     9.6350 hc         1 DOL       0.038200
     63 H451         0.6620    -1.1160    10.2420 h1         1 DOL       0.031450
     64 H452         0.8450    -2.5930     9.2980 h1         1 DOL       0.031450
     65 H461         2.9740    -1.6410    10.2890 hc         1 DOL       0.038200
     66 H462         3.0790    -1.8500     8.5370 hc         1 DOL       0.038200
     67 H463         2.8110    -0.2270     9.2270 hc         1 DOL       0.038200
     68 HC1          0.7580    -1.6080     1.3110 h1         1 DOL       0.118700
     69 HC12        -2.1620     2.2670    -0.4800 h4         1 DOL       0.064100
     70 H131        -2.2940     1.3050    -5.5730 hc         1 DOL       0.096700
     71 H132        -3.3710     2.4840    -4.9590 hc         1 DOL       0.096700
     72 H161        -4.0940     1.0770    -7.1750 hc         1 DOL       0.063700
     73 H162        -5.6550     0.3200    -6.7220 hc         1 DOL       0.063700
     74 HC17        -4.1910    -1.0460    -8.1770 h1         1 DOL       0.030700
     75 HO18        -5.6660    -2.0440    -6.8340 ho         1 DOL       0.445000
     76 HC19        -1.9820    -0.6790    -7.7020 ha         1 DOL       0.166000
     77 H211        -2.5400    -3.5470    -4.9050 hc         1 DOL       0.058367
     78 H212        -1.7440    -2.4030    -3.8160 hc         1 DOL       0.058367
     79 H213        -3.3420    -2.0540    -4.4020 hc         1 DOL       0.058367
     80 HC22         0.0710    -0.9620    -6.7250 ha         1 DOL       0.166000
     81 HC23         0.2760    -3.0430    -4.4550 ha         1 DOL       0.187000
     82 H241         2.3610    -1.4860    -6.1160 h1         1 DOL       0.053700
     83 H242         2.5670    -3.1180    -5.4450 h1         1 DOL       0.053700
     84 HN25         2.9390    -2.2120    -3.3260 hn         1 DOL       0.315500
     85 HC28         3.4890    -0.7950    -1.8000 ha         1 DOL       0.181000
     86 HC29         3.2680     2.1780    -2.5930 ha         1 DOL       0.192000
     87 HC30         4.7350     0.7140    -0.3520 hc         1 DOL       0.071700
     88 H311         6.1270     2.1400    -1.6820 hc         1 DOL       0.039367
     89 H312         5.0970     3.5480    -1.3730 hc         1 DOL       0.039367
     90 H313         6.0000     2.7940    -0.0380 hc         1 DOL       0.039367
     91 HC32         3.9670     1.9510     1.4410 h1         1 DOL       0.053700
     92 HC33         3.8160     4.2190     0.5430 hc         1 DOL       0.055700
     93 H351         1.6570     5.0520    -0.4960 hc         1 DOL       0.036033
     94 H352         2.6180     4.0410    -1.5700 hc         1 DOL       0.036033
     95 H353         1.1760     3.3670    -0.7710 hc         1 DOL       0.036033
     96 H341         1.2360     3.4260     1.9770 hc         1 DOL       0.036033
     97 H342         2.8170     3.6600     2.7540 hc         1 DOL       0.036033
     98 H343         2.0070     5.0240     1.9640 hc         1 DOL       0.036033
@<TRIPOS>BOND
     1     1     2 2   
     2     2     3 1   
     3     2    18 1   
     4     3     4 1   
     5     3    17 1   
     6     4     5 1   
     7     4    49 1   
     8     4    50 1   
     9     5     6 1   
    10     5    51 1   
    11     5    52 1   
    12     6     7 1   
    13     6    17 1   
    14     6    53 1   
    15     7     8 2   
    16     7     9 2   
    17     7    10 1   
    18    10    11 1   
    19    10    54 1   
    20    10    55 1   
    21    11    12 1   
    22    11    56 1   
    23    11    57 1   
    24    12    13 1   
    25    12    15 1   
    26    13    14 1   
    27    13    58 1   
    28    13    59 1   
    29    14    60 1   
    30    14    61 1   
    31    14    62 1   
    32    15    16 1   
    33    15    63 1   
    34    15    64 1   
    35    16    65 1   
    36    16    66 1   
    37    16    67 1   
    38    17    47 1   
    39    17    68 1   
    40    18    19 2   
    41    18    21 1   
    42    19    20 1   
    43    19    69 1   
    44    20    22 1   
    45    21    22 2   
    46    22    23 1   
    47    23    24 1   
    48    23    70 1   
    49    23    71 1   
    50    24    25 2   
    51    24    26 1   
    52    26    27 1   
    53    26    72 1   
    54    26    73 1   
    55    27    28 1   
    56    27    29 1   
    57    27    74 1   
    58    28    75 1   
    59    29    30 2   
    60    29    76 1   
    61    30    31 1   
    62    30    32 1   
    63    31    77 1   
    64    31    78 1   
    65    31    79 1   
    66    32    33 2   
    67    32    80 1   
    68    33    34 1   
    69    33    81 1   
    70    34    35 1   
    71    34    82 1   
    72    34    83 1   
    73    35    36 1   
    74    35    84 1   
    75    36    37 2   
    76    36    38 1   
    77    38    39 2   
    78    38    85 1   
    79    39    40 1   
    80    39    86 1   
    81    40    41 1   
    82    40    42 1   
    83    40    87 1   
    84    41    88 1   
    85    41    89 1   
    86    41    90 1   
    87    42    43 1   
    88    42    46 1   
    89    42    91 1   
    90    43    44 1   
    91    43    45 1   
    92    43    92 1   
    93    44    93 1   
    94    44    94 1   
    95    44    95 1   
    96    45    96 1   
    97    45    97 1   
    98    45    98 1   
    99    46    47 1   
   100    47    48 2   
@<TRIPOS>SUBSTRUCTURE
     1 DOL         1 TEMP              0 ****  ****    0 ROOT
