@<TRIPOS>MOLECULE
DOL
   98   100     1     0     0
SMALL
bcc


@<TRIPOS>ATOM
      1 O7           0.5800    -0.7820    -1.2020 o          1 DOL      -0.564100
      2 C6          -0.1420     0.0680    -0.7120 c          1 DOL       0.628600
      3 N5          -0.0970     0.3430     0.6130 n          1 DOL      -0.473800
      4 C4          -0.9370     1.2350     1.3870 c5         1 DOL       0.120000
      5 C3          -0.8240     0.6670     2.7930 c5         1 DOL      -0.071400
      6 C2           0.6120     0.1500     2.8490 c5         1 DOL      -0.183900
      7 S39          0.7900    -1.3010     3.9030 s6         1 DOL       0.988000
      8 O41          2.1980    -1.6940     3.9170 o          1 DOL      -0.569800
      9 O40         -0.1900    -2.2980     3.4660 o          1 DOL      -0.569800
     10 C42          0.3370    -0.7110     5.5280 c3         1 DOL      -0.187600
     11 C43          0.5010    -1.8230     6.5640 c3         1 DOL       0.197800
     12 N44          0.0270    -1.3630     7.8540 n3         1 DOL      -0.729600
     13 C47         -1.4190    -1.4950     7.9750 c3         1 DOL       0.170300
     14 C48         -2.0120    -0.5790     9.0320 c3         1 DOL      -0.090100
     15 C45          0.7420    -2.0050     8.9500 c3         1 DOL       0.170300
     16 C46          2.1250    -1.4150     9.1690 c3         1 DOL      -0.090100
     17 C1           0.9740    -0.2310     1.3920 c5         1 DOL       0.094700
     18 C8          -1.0730     0.8410    -1.5620 cc         1 DOL       0.188500
     19 C12         -1.6250     2.0720    -1.4190 cd         1 DOL       0.180300
     20 O11         -2.2850     2.3550    -2.5560 os         1 DOL      -0.338800
     21 N9          -1.4010     0.3620    -2.8100 nc         1 DOL      -0.616000
     22 C10         -2.1110     1.2810    -3.3510 cd         1 DOL       0.504700
     23 C13         -2.7150     1.2840    -4.7020 c3         1 DOL      -0.211700
     24 C14         -4.0320     0.5360    -4.7860 c          1 DOL       0.591100
     25 O15         -4.6590     0.2400    -3.7990 o          1 DOL      -0.499100
     26 C16         -4.4920     0.1970    -6.1800 c3         1 DOL      -0.222400
     27 C17         -4.1560    -1.2680    -6.5610 c3         1 DOL       0.216300
     28 O18         -4.8880    -2.1930    -5.8060 oh         1 DOL      -0.578800
     29 C19         -2.6760    -1.4960    -6.4620 c2         1 DOL      -0.225200
     30 C20         -1.9190    -2.0270    -5.4880 ce         1 DOL      -0.003200
     31 C21         -2.4080    -2.6230    -4.2020 c3         1 DOL      -0.071900
     32 C22         -0.4650    -1.9650    -5.6710 ce         1 DOL      -0.141000
     33 C23          0.4430    -2.3220    -4.7640 c2         1 DOL      -0.155200
     34 C24          1.9220    -2.2230    -4.9750 c3         1 DOL       0.138200
     35 N25          2.6060    -1.5930    -3.8680 ns         1 DOL      -0.560900
     36 C26          2.6170    -0.2620    -3.6630 c          1 DOL       0.684300
     37 O27          2.1460     0.5380    -4.4590 o          1 DOL      -0.615100
     38 C28          3.3280     0.1440    -2.4240 ce         1 DOL      -0.224200
     39 C29          3.4870     1.4170    -2.0780 c2         1 DOL      -0.100200
     40 C30          4.2630     1.8460    -0.8710 c3         1 DOL      -0.058500
     41 C31          5.3450     2.8600    -1.2430 c3         1 DOL      -0.084100
     42 C32          3.4000     2.3640     0.2980 c3         1 DOL       0.172100
     43 C33          2.8690     3.7970     0.2210 c3         1 DOL      -0.054700
     44 C35          1.9380     4.0730    -0.9560 c3         1 DOL      -0.085600
     45 C34          2.2070     4.1840     1.5440 c3         1 DOL      -0.085600
     46 O36          2.2430     1.5320     0.4990 os         1 DOL      -0.416900
     47 C37          2.3450     0.3440     1.0500 c          1 DOL       0.629100
     48 O38          3.3720    -0.2160     1.3350 o          1 DOL      -0.510000
     49 HC41        -1.9660     1.2170     1.0350 h1         1 DOL       0.054200
     50 HC42        -0.5760     2.2680     1.3520 h1         1 DOL       0.054200
     51 HC31        -1.5390    -0.1480     2.9130 hc         1 DOL       0.069700
     52 HC3A        -1.0200     1.4160     3.5580 hc         1 DOL       0.069700
     53 HC2          1.2860     0.9060     3.2580 h1         1 DOL       0.107700
     54 H421        -0.6950    -0.3590     5.4640 h1         1 DOL       0.100200
     55 H422         0.9810     0.1370     5.7620 h1         1 DOL       0.100200
     56 H431         1.5590    -2.0730     6.6340 h1         1 DOL       0.053700
     57 H432        -0.0190    -2.7350     6.2360 h1         1 DOL       0.053700
     58 H471        -1.7110    -2.5400     8.1710 h1         1 DOL       0.031450
     59 H472        -1.8700    -1.2360     7.0140 h1         1 DOL       0.031450
     60 H481        -3.0980    -0.6680     9.0380 hc         1 DOL       0.038200
     61 H482        -1.6630    -0.8190    10.0370 hc         1 DOL       0.038200
     62 H483        -1.7560     0.4610     8.8270 hc         1 DOL       0.038200
     63 H451         0.1620    -1.8680     9.8630 h1         1 DOL       0.031450
     64 H452         0.8140    -3.0940     8.7980 h1         1 DOL       0.031450
     65 H461         2.6230    -1.9170     9.9990 hc         1 DOL       0.038200
     66 H462         2.7680    -1.5230     8.2940 hc         1 DOL       0.038200
     67 H463         2.0570    -0.3530     9.4050 hc         1 DOL       0.038200
     68 HC1          1.0240    -1.3130     1.2470 h1         1 DOL       0.118700
     69 HC12        -1.6220     2.8290    -0.6540 h4         1 DOL       0.064100
     70 H131        -2.0100     0.8430    -5.4070 hc         1 DOL       0.096700
     71 H132        -2.8980     2.3060    -5.0480 hc         1 DOL       0.096700
     72 H161        -4.0200     0.8590    -6.9090 hc         1 DOL       0.063700
     73 H162        -5.5730     0.3460    -6.2570 hc         1 DOL       0.063700
     74 HC17        -4.4210    -1.3530    -7.6250 h1         1 DOL       0.030700
     75 HO18        -5.8240    -1.9820    -5.8930 ho         1 DOL       0.406000
     76 HC19        -2.1470    -1.0770    -7.3140 ha         1 DOL       0.116000
     77 H211        -2.0730    -3.6590    -4.1080 hc         1 DOL       0.058367
     78 H212        -1.9790    -2.0700    -3.3650 hc         1 DOL       0.058367
     79 H213        -3.4860    -2.6030    -4.1080 hc         1 DOL       0.058367
     80 HC22        -0.1190    -1.5540    -6.6170 ha         1 DOL       0.116000
     81 HC23         0.1370    -2.7060    -3.7970 ha         1 DOL       0.137000
     82 H241         2.1450    -1.6870    -5.8990 h1         1 DOL       0.053700
     83 H242         2.3510    -3.2220    -5.0800 h1         1 DOL       0.053700
     84 HN25         2.9460    -2.1930    -3.1350 hn         1 DOL       0.315500
     85 HC28         3.7470    -0.6420    -1.8040 ha         1 DOL       0.131000
     86 HC29         3.0650     2.1870    -2.7170 ha         1 DOL       0.142000
     87 HC30         4.7740     0.9600    -0.4890 hc         1 DOL       0.071700
     88 H311         6.0700     2.4010    -1.9150 hc         1 DOL       0.039367
     89 H312         4.9390     3.7380    -1.7470 hc         1 DOL       0.039367
     90 H313         5.8860     3.2010    -0.3590 hc         1 DOL       0.039367
     91 HC32         4.0270     2.3000     1.1940 h1         1 DOL       0.053700
     92 HC33         3.7500     4.4380     0.1160 hc         1 DOL       0.055700
     93 H351         1.4800     5.0580    -0.8480 hc         1 DOL       0.036033
     94 H352         2.4640     4.0760    -1.9090 hc         1 DOL       0.036033
     95 H353         1.1310     3.3420    -1.0240 hc         1 DOL       0.036033
     96 H341         1.2930     3.6180     1.7310 hc         1 DOL       0.036033
     97 H342         2.8790     4.0230     2.3890 hc         1 DOL       0.036033
     98 H343         1.9370     5.2410     1.5350 hc         1 DOL       0.036033
@<TRIPOS>BOND
     1     1     2 2   
     2     2     3 1   
     3     2    18 1   
     4     3     4 1   
     5     3    17 1   
     6     4     5 1   
     7     4    49 1   
     8     4    50 1   
     9     5     6 1   
    10     5    51 1   
    11     5    52 1   
    12     6     7 1   
    13     6    17 1   
    14     6    53 1   
    15     7     8 2   
    16     7     9 2   
    17     7    10 1   
    18    10    11 1   
    19    10    54 1   
    20    10    55 1   
    21    11    12 1   
    22    11    56 1   
    23    11    57 1   
    24    12    13 1   
    25    12    15 1   
    26    13    14 1   
    27    13    58 1   
    28    13    59 1   
    29    14    60 1   
    30    14    61 1   
    31    14    62 1   
    32    15    16 1   
    33    15    63 1   
    34    15    64 1   
    35    16    65 1   
    36    16    66 1   
    37    16    67 1   
    38    17    47 1   
    39    17    68 1   
    40    18    19 2   
    41    18    21 1   
    42    19    20 1   
    43    19    69 1   
    44    20    22 1   
    45    21    22 2   
    46    22    23 1   
    47    23    24 1   
    48    23    70 1   
    49    23    71 1   
    50    24    25 2   
    51    24    26 1   
    52    26    27 1   
    53    26    72 1   
    54    26    73 1   
    55    27    28 1   
    56    27    29 1   
    57    27    74 1   
    58    28    75 1   
    59    29    30 2   
    60    29    76 1   
    61    30    31 1   
    62    30    32 1   
    63    31    77 1   
    64    31    78 1   
    65    31    79 1   
    66    32    33 2   
    67    32    80 1   
    68    33    34 1   
    69    33    81 1   
    70    34    35 1   
    71    34    82 1   
    72    34    83 1   
    73    35    36 1   
    74    35    84 1   
    75    36    37 2   
    76    36    38 1   
    77    38    39 2   
    78    38    85 1   
    79    39    40 1   
    80    39    86 1   
    81    40    41 1   
    82    40    42 1   
    83    40    87 1   
    84    41    88 1   
    85    41    89 1   
    86    41    90 1   
    87    42    43 1   
    88    42    46 1   
    89    42    91 1   
    90    43    44 1   
    91    43    45 1   
    92    43    92 1   
    93    44    93 1   
    94    44    94 1   
    95    44    95 1   
    96    45    96 1   
    97    45    97 1   
    98    45    98 1   
    99    46    47 1   
   100    47    48 2   
@<TRIPOS>SUBSTRUCTURE
     1 DOL         1 TEMP              0 ****  ****    0 ROOT
