@<TRIPOS>MOLECULE
DON
   22    21     1     0     0
SMALL
bcc


@<TRIPOS>ATOM
      1 O           56.4690     8.0310    21.4940 o          1 DON      -0.833800
      2 C           57.1590     9.0540    21.6750 c          1 DON       0.937600
      3 OXT         58.3870     9.1680    21.4950 o          1 DON      -0.833800
      4 CA          56.3890    10.3260    22.1090 c3         1 DON       0.018500
      5 N           57.2780    11.2650    22.7750 n8         1 DON      -0.877800
      6 CB          55.6640    10.8790    20.8690 c3         1 DON      -0.096400
      7 C1E         54.7640    12.0640    21.1790 c3         1 DON      -0.169400
      8 C1D         53.9590    12.5540    20.0090 c          1 DON       0.586100
      9 O1J         54.1170    12.1610    18.8790 o          1 DON      -0.517100
     10 C1C         52.8570    13.5650    20.2940 c3         1 DON      -0.113200
     11 N1B         53.1660    14.4240    21.4220 n2         1 DON      -0.149200
     12 N1A         53.0460    15.6340    21.2950 n2         1 DON      -0.346400
     13 HA          55.6190    10.0250    22.8290 h1         1 DON       0.041700
     14 H           58.0720    11.4410    22.1740 hn         1 DON       0.319800
     15 H2          56.8170    12.1550    22.9220 hn         1 DON       0.319800
     16 HB2         56.4080    11.1590    20.1170 hc         1 DON       0.056200
     17 HB3         55.0630    10.0770    20.4340 hc         1 DON       0.056200
     18 H1E1        54.0710    11.8270    21.9940 hc         1 DON       0.062200
     19 H1E2        55.3400    12.9200    21.5490 hc         1 DON       0.062200
     20 H1C1        52.6080    14.1250    19.3840 h1         1 DON       0.074200
     21 H1C2        51.9760    12.9790    20.5850 h1         1 DON       0.074200
     22 H1A1        52.7280    15.9020    20.3460 hn         1 DON       0.326400
@<TRIPOS>BOND
     1     1     2 1   
     2     2     3 1   
     3     2     4 1   
     4     4     5 1   
     5     4     6 1   
     6     4    13 1   
     7     5    14 1   
     8     5    15 1   
     9     6     7 1   
    10     6    16 1   
    11     6    17 1   
    12     7     8 1   
    13     7    18 1   
    14     7    19 1   
    15     8     9 2   
    16     8    10 1   
    17    10    11 1   
    18    10    20 1   
    19    10    21 1   
    20    11    12 2   
    21    12    22 1   
@<TRIPOS>SUBSTRUCTURE
     1 DON         1 TEMP              0 ****  ****    0 ROOT
