@<TRIPOS>MOLECULE
DON
   22    21     1     0     0
SMALL
No Charge or Current Charge


@<TRIPOS>ATOM
      1 O           55.5390     8.0110    22.3610 o          1 DON      -0.833800
      2 C           56.2490     8.7810    21.7200 c          1 DON       0.937600
      3 OXT         56.9950     8.3940    20.8240 o          1 DON      -0.833800
      4 CA          56.2590    10.3250    22.1210 c3         1 DON       0.018500
      5 N           57.5600    10.8900    22.6410 n8         1 DON      -0.877800
      6 CB          55.7290    11.2070    20.9570 c3         1 DON      -0.096400
      7 C1E         55.4110    12.6760    21.3530 c3         1 DON      -0.169400
      8 C1D         54.7710    13.4470    20.1880 c          1 DON       0.586100
      9 O1J         55.4510    13.9720    19.3140 o          1 DON      -0.517100
     10 C1C         53.2360    13.5230    20.1730 c3         1 DON      -0.113200
     11 N1B         52.7640    14.6820    20.9390 n2         1 DON      -0.149200
     12 N1A         51.5080    14.7850    20.9580 n2         1 DON      -0.346400
     13 HA          55.5350    10.4190    22.9420 h1         1 DON       0.041700
     14 H           58.2830    10.7780    21.9220 hn         1 DON       0.319800
     15 H2          57.4640    11.9030    22.7580 hn         1 DON       0.319800
     16 HB2         56.4510    11.1970    20.1300 hc         1 DON       0.056200
     17 HB3         54.8110    10.7450    20.5690 hc         1 DON       0.056200
     18 H1E1        54.7060    12.6460    22.1920 hc         1 DON       0.062200
     19 H1E2        56.3360    13.1850    21.6460 hc         1 DON       0.062200
     20 H1C1        52.9230    13.5830    19.1220 h1         1 DON       0.074200
     21 H1C2        52.8530    12.5830    20.5920 h1         1 DON       0.074200
     22 H1A1        51.1240    14.0040    20.4070 hn         1 DON       0.326400
@<TRIPOS>BOND
     1     1     2 1   
     2     2     3 1   
     3     2     4 1   
     4     4     5 1   
     5     4     6 1   
     6     4    13 1   
     7     5    14 1   
     8     5    15 1   
     9     6     7 1   
    10     6    16 1   
    11     6    17 1   
    12     7     8 1   
    13     7    18 1   
    14     7    19 1   
    15     8     9 2   
    16     8    10 1   
    17    10    11 1   
    18    10    20 1   
    19    10    21 1   
    20    11    12 2   
    21    12    22 1   
@<TRIPOS>SUBSTRUCTURE
     1 DON         1 TEMP              0 ****  ****    0 ROOT
