@<TRIPOS>MOLECULE
DOO
   55    60     1     0     0
SMALL
abcg2


@<TRIPOS>ATOM
      1 F30         -4.9610    -2.3400    -0.2200 f          1 DOO      -0.183000
      2 C6          -3.6270    -2.3300    -0.0260 ca         1 DOO       0.196000
      3 C1          -3.0270    -3.5420     0.2960 ca         1 DOO      -0.224000
      4 C5          -2.9540    -1.1440    -0.1750 ca         1 DOO      -0.172000
      5 C4          -1.5680    -1.1850     0.0330 cp         1 DOO       0.030000
      6 C7          -0.5100    -0.2110    -0.0570 cp         1 DOO      -0.268000
      7 C13         -0.3620     1.1690    -0.3060 ca         1 DOO       0.464900
      8 N22         -1.3960     2.0370    -0.3480 nh         1 DOO      -0.764300
      9 C26         -2.4700     2.0550     0.6370 c5         1 DOO       0.211800
     10 C25         -3.5050     2.9560    -0.0200 c5         1 DOO      -0.112700
     11 C27         -4.3750     3.7920     0.9260 c5         1 DOO      -0.106400
     12 C28         -4.0780     5.2420     0.5020 c5         1 DOO       0.135800
     13 N29         -2.7200     5.2440    -0.0290 n7         1 DOO      -0.823400
     14 C24         -2.6240     3.9940    -0.7720 c5         1 DOO       0.134500
     15 C23         -1.2120     3.4010    -0.8220 c5         1 DOO       0.206800
     16 N12          0.8600     1.6620    -0.5330 nb         1 DOO      -0.296000
     17 C11          1.8930     0.8530    -0.4020 ca         1 DOO       0.409300
     18 N10          1.9180    -0.4070    -0.0460 nb         1 DOO      -0.303000
     19 C8           0.6950    -0.9140     0.1030 ca         1 DOO       0.223500
     20 N9           0.4290    -2.2070     0.3760 na         1 DOO      -0.317300
     21 C3          -0.9410    -2.4070     0.3230 ca         1 DOO      -0.104200
     22 C2          -1.6450    -3.6130     0.4740 ca         1 DOO       0.336000
     23 N31         -0.9990    -4.7730     0.8090 nu         1 DOO      -0.945200
     24 C32         -1.6870    -6.0410     0.7790 c3         1 DOO       0.194100
     25 O14          3.0690     1.4670    -0.6630 os         1 DOO      -0.329400
     26 C15          4.2230     0.7440    -0.5440 ca         1 DOO       0.003100
     27 C20          4.8720     0.2620    -1.6640 ca         1 DOO       0.120400
     28 N19          6.0220    -0.3890    -1.5680 nb         1 DOO      -0.176500
     29 C18          6.5300    -0.5710    -0.3530 ca         1 DOO       0.137300
     30 C21          7.8380    -1.2870    -0.2450 c3         1 DOO      -0.133400
     31 N17          5.9690    -0.1380     0.7740 nb         1 DOO      -0.176500
     32 C16          4.8230     0.5150     0.6800 ca         1 DOO       0.120400
     33 H1          -3.6470    -4.4240     0.3840 ha         1 DOO       0.135000
     34 H2          -3.4770    -0.2520    -0.4880 ha         1 DOO       0.140000
     35 H3          -2.8340     1.0630     0.8880 h1         1 DOO       0.056700
     36 H4          -2.1020     2.5080     1.5690 h1         1 DOO       0.056700
     37 H5          -4.1060     2.3720    -0.7200 hc         1 DOO       0.074700
     38 H6          -5.4350     3.5460     0.8520 hc         1 DOO       0.052200
     39 H7          -4.0800     3.6350     1.9660 hc         1 DOO       0.052200
     40 H8          -4.7690     5.5480    -0.2890 h1         1 DOO       0.058200
     41 H9          -4.1740     5.9610     1.3150 h1         1 DOO       0.058200
     42 H10         -2.0740     5.2170     0.7530 hn         1 DOO       0.402000
     43 H12         -3.0090     4.1590    -1.7810 h1         1 DOO       0.083700
     44 H13         -0.5280     3.9620    -0.1720 h1         1 DOO       0.068200
     45 H14         -0.7830     3.4010    -1.8230 h1         1 DOO       0.068200
     46 H15          1.1400    -2.9040     0.5240 hn         1 DOO       0.364000
     47 H16         -0.0280    -4.8300     0.5520 hn         1 DOO       0.464000
     48 H17         -2.1150    -6.2790    -0.2000 h1         1 DOO       0.040367
     49 H18         -0.9780    -6.8220     1.0410 h1         1 DOO       0.040367
     50 H19         -2.4920    -6.0640     1.5140 h1         1 DOO       0.040367
     51 H20          4.4580     0.4110    -2.6560 h4         1 DOO       0.036600
     52 H21          8.6620    -0.5720    -0.2920 hc         1 DOO       0.060700
     53 H22          7.9160    -1.8140     0.7040 hc         1 DOO       0.060700
     54 H23          7.9670    -1.9920    -1.0620 hc         1 DOO       0.060700
     55 H24          4.3710     0.8710     1.6010 h4         1 DOO       0.036600
@<TRIPOS>BOND
     1     1     2 1   
     2     2     3 ar  
     3     2     4 ar  
     4     3    22 ar  
     5     3    33 1   
     6     4     5 ar  
     7     4    34 1   
     8     5     6 1   
     9     5    21 ar  
    10     6     7 ar  
    11     6    19 ar  
    12     7     8 1   
    13     7    16 ar  
    14     8     9 1   
    15     8    15 1   
    16     9    10 1   
    17     9    35 1   
    18     9    36 1   
    19    10    11 1   
    20    10    14 1   
    21    10    37 1   
    22    11    12 1   
    23    11    38 1   
    24    11    39 1   
    25    12    13 1   
    26    12    40 1   
    27    12    41 1   
    28    13    14 1   
    29    13    42 1   
    30    14    15 1   
    31    14    43 1   
    32    15    44 1   
    33    15    45 1   
    34    16    17 ar  
    35    17    18 ar  
    36    17    25 1   
    37    18    19 ar  
    38    19    20 1   
    39    20    21 1   
    40    20    46 1   
    41    21    22 ar  
    42    22    23 1   
    43    23    24 1   
    44    23    47 1   
    45    24    48 1   
    46    24    49 1   
    47    24    50 1   
    48    25    26 1   
    49    26    27 ar  
    50    26    32 ar  
    51    27    28 ar  
    52    27    51 1   
    53    28    29 ar  
    54    29    30 1   
    55    29    31 ar  
    56    30    52 1   
    57    30    53 1   
    58    30    54 1   
    59    31    32 ar  
    60    32    55 1   
@<TRIPOS>SUBSTRUCTURE
     1 DOO         1 TEMP              0 ****  ****    0 ROOT
