@<TRIPOS>MOLECULE
DOO
   55    60     1     0     0
SMALL
No Charge or Current Charge


@<TRIPOS>ATOM
      1 F30         -5.0320    -2.2750    -0.9630 f          1 DOO      -0.183000
      2 C6          -3.7570    -2.3850    -0.5320 ca         1 DOO       0.196000
      3 C1          -3.2640    -3.6500    -0.1450 ca         1 DOO      -0.224000
      4 C5          -2.9410    -1.2400    -0.4880 ca         1 DOO      -0.172000
      5 C4          -1.6190    -1.3780    -0.0280 cp         1 DOO       0.030000
      6 C7          -0.5210    -0.4250     0.1120 cp         1 DOO      -0.268000
      7 C13         -0.4250     0.9650    -0.0820 ca         1 DOO       0.464900
      8 N22         -1.5160     1.7980    -0.3710 nh         1 DOO      -0.764300
      9 C26         -2.5850     2.0480     0.6250 c5         1 DOO       0.211800
     10 C25         -3.5240     3.0200    -0.1570 c5         1 DOO      -0.112700
     11 C27         -4.1460     4.0400     0.8500 c5         1 DOO      -0.106400
     12 C28         -3.1690     5.2590     0.8130 c5         1 DOO       0.135800
     13 N29         -1.9750     4.8010     0.0640 n7         1 DOO      -0.823400
     14 C24         -2.5410     3.8900    -0.9650 c5         1 DOO       0.134500
     15 C23         -1.4810     2.8410    -1.4430 c5         1 DOO       0.206800
     16 N12          0.7600     1.5840     0.0750 nb         1 DOO      -0.296000
     17 C11          1.8280     0.8320     0.4270 ca         1 DOO       0.409300
     18 N10          1.8080    -0.5020     0.6700 nb         1 DOO      -0.303000
     19 C8           0.6270    -1.1070     0.5030 ca         1 DOO       0.223500
     20 N9           0.2190    -2.4380     0.6480 na         1 DOO      -0.317300
     21 C3          -1.1390    -2.6350     0.3240 ca         1 DOO      -0.104200
     22 C2          -1.9300    -3.7970     0.2840 ca         1 DOO       0.336000
     23 N31         -1.4070    -5.0420     0.6480 nu         1 DOO      -0.945200
     24 C32         -2.1050    -6.3410     0.6410 c3         1 DOO       0.194100
     25 O14          3.0170     1.5060     0.5970 os         1 DOO      -0.329400
     26 C15          4.2430     0.9770     0.2420 ca         1 DOO       0.003100
     27 C20          4.4120     0.1500    -0.8900 ca         1 DOO       0.120400
     28 N19          5.6240    -0.3400    -1.2280 nb         1 DOO      -0.176500
     29 C18          6.6620     0.0040    -0.4340 ca         1 DOO       0.137300
     30 C21          8.0270    -0.5410    -0.8170 c3         1 DOO      -0.133400
     31 N17          6.6060     0.7990     0.6580 nb         1 DOO      -0.176500
     32 C16          5.3930     1.2870     0.9920 ca         1 DOO       0.120400
     33 H1          -3.9230    -4.5100    -0.1970 ha         1 DOO       0.135000
     34 H2          -3.3250    -0.2810    -0.8200 ha         1 DOO       0.140000
     35 H3          -3.1120     1.1340     0.9300 h1         1 DOO       0.056700
     36 H4          -2.1660     2.5080     1.5310 h1         1 DOO       0.056700
     37 H5          -4.2540     2.4930    -0.7830 hc         1 DOO       0.074700
     38 H6          -5.1500     4.3480     0.5350 hc         1 DOO       0.052200
     39 H7          -4.2500     3.6250     1.8590 hc         1 DOO       0.052200
     40 H8          -3.6420     6.1010     0.2860 h1         1 DOO       0.058200
     41 H9          -2.9060     5.6110     1.8210 h1         1 DOO       0.058200
     42 H10         -1.4080     4.2140     0.6860 hn         1 DOO       0.402000
     43 H12         -3.0180     4.4370    -1.7920 h1         1 DOO       0.083700
     44 H13         -0.4920     3.3020    -1.5690 h1         1 DOO       0.068200
     45 H14         -1.7750     2.4080    -2.4090 h1         1 DOO       0.068200
     46 H15          0.8510    -3.1710     0.9440 hn         1 DOO       0.364000
     47 H16         -0.4340    -5.0450     0.9540 hn         1 DOO       0.464000
     48 H17         -2.4530    -6.5870    -0.3720 h1         1 DOO       0.040367
     49 H18         -1.4320    -7.1410     0.9780 h1         1 DOO       0.040367
     50 H19         -2.9750    -6.3160     1.3120 h1         1 DOO       0.040367
     51 H20          3.5790    -0.1190    -1.5360 h4         1 DOO       0.036600
     52 H21          8.5400     0.1430    -1.5040 hc         1 DOO       0.060700
     53 H22          8.6680    -0.6740     0.0630 hc         1 DOO       0.060700
     54 H23          7.9460    -1.5160    -1.3130 hc         1 DOO       0.060700
     55 H24          5.3440     1.9300     1.8690 h4         1 DOO       0.036600
@<TRIPOS>BOND
     1     1     2 1   
     2     2     3 ar  
     3     2     4 ar  
     4     3    22 ar  
     5     3    33 1   
     6     4     5 ar  
     7     4    34 1   
     8     5     6 1   
     9     5    21 ar  
    10     6     7 ar  
    11     6    19 ar  
    12     7     8 1   
    13     7    16 ar  
    14     8     9 1   
    15     8    15 1   
    16     9    10 1   
    17     9    35 1   
    18     9    36 1   
    19    10    11 1   
    20    10    14 1   
    21    10    37 1   
    22    11    12 1   
    23    11    38 1   
    24    11    39 1   
    25    12    13 1   
    26    12    40 1   
    27    12    41 1   
    28    13    14 1   
    29    13    42 1   
    30    14    15 1   
    31    14    43 1   
    32    15    44 1   
    33    15    45 1   
    34    16    17 ar  
    35    17    18 ar  
    36    17    25 1   
    37    18    19 ar  
    38    19    20 1   
    39    20    21 1   
    40    20    46 1   
    41    21    22 ar  
    42    22    23 1   
    43    23    24 1   
    44    23    47 1   
    45    24    48 1   
    46    24    49 1   
    47    24    50 1   
    48    25    26 1   
    49    26    27 ar  
    50    26    32 ar  
    51    27    28 ar  
    52    27    51 1   
    53    28    29 ar  
    54    29    30 1   
    55    29    31 ar  
    56    30    52 1   
    57    30    53 1   
    58    30    54 1   
    59    31    32 ar  
    60    32    55 1   
@<TRIPOS>SUBSTRUCTURE
     1 DOO         1 TEMP              0 ****  ****    0 ROOT
