@<TRIPOS>MOLECULE
DOP
   55    54     1     0     0
SMALL
abcg2


@<TRIPOS>ATOM
      1 P            1.4180    -0.6150    -0.0010 p5         1 DOP       1.391800
      2 O1           0.4930     0.0060     1.2040 os         1 DOP      -0.586400
      3 O4           0.5020     0.0250    -1.2020 os         1 DOP      -0.586400
      4 O2           2.7800     0.0150     0.0100 o          1 DOP      -0.833000
      5 O3           1.3010    -2.1100    -0.0140 o          1 DOP      -0.833000
      6 C1           1.0580    -0.0210     2.5060 c3         1 DOP       0.225600
      7 C2          -0.0350     0.0290     3.5540 c3         1 DOP      -0.085900
      8 C3           0.5580     0.0450     4.9590 c3         1 DOP      -0.077900
      9 C4          -0.4890     0.0570     6.0640 c3         1 DOP      -0.073400
     10 C5           0.1290     0.0700     7.4570 c3         1 DOP      -0.076400
     11 C6          -0.9000     0.0720     8.5800 c3         1 DOP      -0.075400
     12 C7          -0.2710     0.0860     9.9690 c3         1 DOP      -0.076400
     13 C8          -1.3020     0.0840    11.0880 c3         1 DOP      -0.087100
     14 C9           1.0650    -0.0050    -2.5060 c3         1 DOP       0.225600
     15 C10         -0.0290     0.0380    -3.5520 c3         1 DOP      -0.085900
     16 C11          0.5600     0.0520    -4.9570 c3         1 DOP      -0.077900
     17 C12         -0.4890     0.0620    -6.0610 c3         1 DOP      -0.073400
     18 C13          0.1270     0.0760    -7.4550 c3         1 DOP      -0.076400
     19 C14         -0.9040     0.0780    -8.5760 c3         1 DOP      -0.075400
     20 C15         -0.2770     0.0920    -9.9650 c3         1 DOP      -0.076400
     21 C16         -1.3100     0.0920   -11.0830 c3         1 DOP      -0.087100
     22 H11          1.7380     0.8290     2.6360 h1         1 DOP       0.017200
     23 H12          1.6540    -0.9280     2.6630 h1         1 DOP       0.017200
     24 H21         -0.6920    -0.8380     3.4390 hc         1 DOP       0.043450
     25 H22         -0.6550     0.9190     3.4060 hc         1 DOP       0.043450
     26 H31          1.2080     0.9200     5.0680 hc         1 DOP       0.033700
     27 H32          1.2070    -0.8290     5.0880 hc         1 DOP       0.033700
     28 H41         -1.1390    -0.8200     5.9610 hc         1 DOP       0.034200
     29 H42         -1.1390     0.9310     5.9450 hc         1 DOP       0.034200
     30 H51          0.7750     0.9490     7.5570 hc         1 DOP       0.034700
     31 H52          0.7850    -0.8000     7.5690 hc         1 DOP       0.034700
     32 H61         -1.5470    -0.8080     8.4840 hc         1 DOP       0.035200
     33 H62         -1.5570     0.9420     8.4720 hc         1 DOP       0.035200
     34 H71          0.3740     0.9660    10.0630 hc         1 DOP       0.035200
     35 H72          0.3880    -0.7820    10.0740 hc         1 DOP       0.035200
     36 H81         -0.8300     0.0950    12.0700 hc         1 DOP       0.027367
     37 H82         -1.9530     0.9580    11.0240 hc         1 DOP       0.027367
     38 H83         -1.9370    -0.8030    11.0360 hc         1 DOP       0.027367
     39 H1'1         1.7420     0.8460    -2.6390 h1         1 DOP       0.017200
     40 H1'2         1.6640    -0.9120    -2.6590 h1         1 DOP       0.017200
     41 H2'1        -0.6850    -0.8310    -3.4330 hc         1 DOP       0.043450
     42 H2'2        -0.6510     0.9270    -3.4050 hc         1 DOP       0.043450
     43 H3'1         1.2100     0.9260    -5.0690 hc         1 DOP       0.033700
     44 H3'2         1.2090    -0.8220    -5.0870 hc         1 DOP       0.033700
     45 H4'1        -1.1370    -0.8150    -5.9570 hc         1 DOP       0.034200
     46 H4'2        -1.1400     0.9350    -5.9400 hc         1 DOP       0.034200
     47 H5'1         0.7730     0.9550    -7.5550 hc         1 DOP       0.034700
     48 H5'2         0.7830    -0.7940    -7.5680 hc         1 DOP       0.034700
     49 H6'1        -1.5510    -0.8010    -8.4790 hc         1 DOP       0.035200
     50 H6'2        -1.5610     0.9480    -8.4670 hc         1 DOP       0.035200
     51 H7'1         0.3690     0.9710   -10.0610 hc         1 DOP       0.035200
     52 H7'2         0.3810    -0.7770   -10.0720 hc         1 DOP       0.035200
     53 H8'1        -0.8390     0.1010   -12.0670 hc         1 DOP       0.027367
     54 H8'2        -1.9470    -0.7920   -11.0300 hc         1 DOP       0.027367
     55 H8'3        -1.9580     0.9680   -11.0190 hc         1 DOP       0.027367
@<TRIPOS>BOND
     1     1     2 1   
     2     1     3 1   
     3     1     4 1   
     4     1     5 1   
     5     2     6 1   
     6     3    14 1   
     7     6     7 1   
     8     6    22 1   
     9     6    23 1   
    10     7     8 1   
    11     7    24 1   
    12     7    25 1   
    13     8     9 1   
    14     8    26 1   
    15     8    27 1   
    16     9    10 1   
    17     9    28 1   
    18     9    29 1   
    19    10    11 1   
    20    10    30 1   
    21    10    31 1   
    22    11    12 1   
    23    11    32 1   
    24    11    33 1   
    25    12    13 1   
    26    12    34 1   
    27    12    35 1   
    28    13    36 1   
    29    13    37 1   
    30    13    38 1   
    31    14    15 1   
    32    14    39 1   
    33    14    40 1   
    34    15    16 1   
    35    15    41 1   
    36    15    42 1   
    37    16    17 1   
    38    16    43 1   
    39    16    44 1   
    40    17    18 1   
    41    17    45 1   
    42    17    46 1   
    43    18    19 1   
    44    18    47 1   
    45    18    48 1   
    46    19    20 1   
    47    19    49 1   
    48    19    50 1   
    49    20    21 1   
    50    20    51 1   
    51    20    52 1   
    52    21    53 1   
    53    21    54 1   
    54    21    55 1   
@<TRIPOS>SUBSTRUCTURE
     1 DOP         1 TEMP              0 ****  ****    0 ROOT
