@<TRIPOS>MOLECULE
DOP
   55    54     1     0     0
SMALL
No Charge or Current Charge


@<TRIPOS>ATOM
      1 P           -1.3410    -4.4660    -0.3250 p5         1 DOP       1.391800
      2 O1          -1.0460    -4.5370     1.2620 os         1 DOP      -0.586400
      3 O4          -2.1070    -3.0460    -0.4050 os         1 DOP      -0.586400
      4 O2          -0.0840    -4.5100    -1.1270 o          1 DOP      -0.833000
      5 O3          -2.2690    -5.5670    -0.7170 o          1 DOP      -0.833000
      6 C1          -0.0110    -3.7570     1.8710 c3         1 DOP       0.225600
      7 C2          -0.6650    -2.6220     2.6910 c3         1 DOP      -0.085900
      8 C3           0.3680    -1.6410     3.2860 c3         1 DOP      -0.077900
      9 C4          -0.2820    -0.5030     4.1040 c3         1 DOP      -0.073400
     10 C5           0.7510     0.4810     4.6950 c3         1 DOP      -0.076400
     11 C6           0.1020     1.6200     5.5120 c3         1 DOP      -0.075400
     12 C7           1.1350     2.6040     6.1030 c3         1 DOP      -0.076400
     13 C8           0.4870     3.7410     6.9180 c3         1 DOP      -0.087100
     14 C9          -1.4180    -1.8200    -0.6820 c3         1 DOP       0.225600
     15 C10         -1.2980    -1.6300    -2.2110 c3         1 DOP      -0.085900
     16 C11         -0.6330    -0.2890    -2.5940 c3         1 DOP      -0.077900
     17 C12         -0.5140    -0.0860    -4.1200 c3         1 DOP      -0.073400
     18 C13          0.1510     1.2560    -4.5010 c3         1 DOP      -0.076400
     19 C14          0.2700     1.4600    -6.0270 c3         1 DOP      -0.075400
     20 C15          0.9340     2.8010    -6.4080 c3         1 DOP      -0.076400
     21 C16          1.0540     3.0050    -7.9300 c3         1 DOP      -0.087100
     22 H11          0.6610    -3.3240     1.1190 h1         1 DOP       0.017200
     23 H12          0.5950    -4.3840     2.5380 h1         1 DOP       0.017200
     24 H21         -1.2500    -3.0680     3.5040 hc         1 DOP       0.043450
     25 H22         -1.3690    -2.0630     2.0650 hc         1 DOP       0.043450
     26 H31          0.9610    -1.2060     2.4720 hc         1 DOP       0.033700
     27 H32          1.0630    -2.1960     3.9290 hc         1 DOP       0.033700
     28 H41         -0.8740    -0.9370     4.9190 hc         1 DOP       0.034200
     29 H42         -0.9780     0.0500     3.4610 hc         1 DOP       0.034200
     30 H51          1.3440     0.9150     3.8800 hc         1 DOP       0.034700
     31 H52          1.4470    -0.0720     5.3390 hc         1 DOP       0.034700
     32 H61         -0.4900     1.1870     6.3270 hc         1 DOP       0.035200
     33 H62         -0.5940     2.1730     4.8680 hc         1 DOP       0.035200
     34 H71          1.7280     3.0420     5.2910 hc         1 DOP       0.035200
     35 H72          1.8320     2.0560     6.7490 hc         1 DOP       0.035200
     36 H81          1.2580     4.4120     7.3160 hc         1 DOP       0.027367
     37 H82         -0.1900     4.3310     6.2890 hc         1 DOP       0.027367
     38 H83         -0.0850     3.3370     7.7610 hc         1 DOP       0.027367
     39 H1'1        -1.9760    -0.9760    -0.2560 h1         1 DOP       0.017200
     40 H1'2        -0.4150    -1.8170    -0.2350 h1         1 DOP       0.017200
     41 H2'1        -0.7170    -2.4500    -2.6480 hc         1 DOP       0.043450
     42 H2'2        -2.3000    -1.6730    -2.6540 hc         1 DOP       0.043450
     43 H3'1        -1.2150     0.5360    -2.1650 hc         1 DOP       0.033700
     44 H3'2         0.3670    -0.2430    -2.1450 hc         1 DOP       0.033700
     45 H4'1         0.0690    -0.9110    -4.5490 hc         1 DOP       0.034200
     46 H4'2        -1.5140    -0.1320    -4.5690 hc         1 DOP       0.034200
     47 H5'1        -0.4320     2.0800    -4.0720 hc         1 DOP       0.034700
     48 H5'2         1.1510     1.3020    -4.0520 hc         1 DOP       0.034700
     49 H6'1         0.8530     0.6350    -6.4560 hc         1 DOP       0.035200
     50 H6'2        -0.7300     1.4130    -6.4760 hc         1 DOP       0.035200
     51 H7'1         0.3530     3.6280    -5.9820 hc         1 DOP       0.035200
     52 H7'2         1.9360     2.8500    -5.9620 hc         1 DOP       0.035200
     53 H8'1         1.5300     3.9670    -8.1500 hc         1 DOP       0.027367
     54 H8'2         1.6610     2.2100    -8.3810 hc         1 DOP       0.027367
     55 H8'3         0.0640     2.9950    -8.4020 hc         1 DOP       0.027367
@<TRIPOS>BOND
     1     1     2 1   
     2     1     3 1   
     3     1     4 1   
     4     1     5 1   
     5     2     6 1   
     6     3    14 1   
     7     6     7 1   
     8     6    22 1   
     9     6    23 1   
    10     7     8 1   
    11     7    24 1   
    12     7    25 1   
    13     8     9 1   
    14     8    26 1   
    15     8    27 1   
    16     9    10 1   
    17     9    28 1   
    18     9    29 1   
    19    10    11 1   
    20    10    30 1   
    21    10    31 1   
    22    11    12 1   
    23    11    32 1   
    24    11    33 1   
    25    12    13 1   
    26    12    34 1   
    27    12    35 1   
    28    13    36 1   
    29    13    37 1   
    30    13    38 1   
    31    14    15 1   
    32    14    39 1   
    33    14    40 1   
    34    15    16 1   
    35    15    41 1   
    36    15    42 1   
    37    16    17 1   
    38    16    43 1   
    39    16    44 1   
    40    17    18 1   
    41    17    45 1   
    42    17    46 1   
    43    18    19 1   
    44    18    47 1   
    45    18    48 1   
    46    19    20 1   
    47    19    49 1   
    48    19    50 1   
    49    20    21 1   
    50    20    51 1   
    51    20    52 1   
    52    21    53 1   
    53    21    54 1   
    54    21    55 1   
@<TRIPOS>SUBSTRUCTURE
     1 DOP         1 TEMP              0 ****  ****    0 ROOT
