@<TRIPOS>MOLECULE
DOQ
   40    40     1     0     0
SMALL
No Charge or Current Charge


@<TRIPOS>ATOM
      1 OAD         -6.1290     1.0830    -0.1100 o          1 DOQ      -0.753000
      2 CAQ         -5.5280     0.5490     0.8120 c          1 DOQ       0.725000
      3 OAG         -6.0840    -0.1200     1.6700 o          1 DOQ      -0.753000
      4 CAS         -3.9840     0.6840     0.8750 c3         1 DOQ      -0.170500
      5 CAB         -3.5550     2.1570     1.0690 c3         1 DOQ      -0.052100
      6 CAK         -3.2860     0.0630    -0.3280 c2         1 DOQ      -0.147200
      7 CAI         -2.0240    -0.4140    -0.3370 ce         1 DOQ      -0.215000
      8 CAJ         -1.4010    -1.0020    -1.5390 ce         1 DOQ      -0.179000
      9 CAP         -0.1500    -1.5210    -1.6750 c2         1 DOQ      -0.096400
     10 CAA          0.3490    -2.0950    -2.9930 c3         1 DOQ      -0.038900
     11 CAT          0.7460    -1.5140    -0.4130 c5         1 DOQ      -0.042500
     12 CAL          1.9910    -2.4290    -0.5540 c5         1 DOQ       0.154800
     13 N            2.7380    -2.0820     0.6630 n7         1 DOQ      -0.837400
     14 CA           2.6910    -0.5690     0.7250 c5         1 DOQ       0.038500
     15 C            2.6400     0.0720     2.1860 c          1 DOQ       0.746000
     16 O            1.5890     0.0920     2.8170 o          1 DOQ      -0.744500
     17 OXT          3.6740     0.5170     2.6710 o          1 DOQ      -0.744500
     18 CB           1.4410    -0.1270    -0.1430 c5         1 DOQ      -0.019700
     19 CG           1.8220     0.7150    -1.4070 c3         1 DOQ      -0.192400
     20 CD           2.4360     2.0730    -1.0030 c          1 DOQ       0.725000
     21 OE2          3.6520     2.1690    -0.9350 o          1 DOQ      -0.754500
     22 OE1          1.6760     2.9950    -0.7490 o          1 DOQ      -0.754500
     23 HAS         -3.6560     0.1390     1.7690 hc         1 DOQ       0.051700
     24 HAB1        -3.8300     2.7630     0.1980 hc         1 DOQ       0.010033
     25 HAB2        -4.0410     2.5850     1.9550 hc         1 DOQ       0.010033
     26 HAB3        -2.4700     2.2280     1.2080 hc         1 DOQ       0.010033
     27 HAK         -3.8930     0.0250    -1.2340 ha         1 DOQ       0.137000
     28 HAI         -1.4390    -0.3590     0.5810 ha         1 DOQ       0.189000
     29 HAJ         -2.0470    -1.0060    -2.4180 ha         1 DOQ       0.129000
     30 HAA1        -0.3960    -1.9860    -3.7900 hc         1 DOQ       0.016367
     31 HAA2         1.2600    -1.5880    -3.3300 hc         1 DOQ       0.016367
     32 HAA3         0.5700    -3.1650    -2.9010 hc         1 DOQ       0.016367
     33 HAT          0.1770    -1.8460     0.4630 hc         1 DOQ       0.065700
     34 HAL1         1.7350    -3.4960    -0.5740 h1         1 DOQ      -0.011800
     35 HAL2         2.5900    -2.1940    -1.4440 h1         1 DOQ      -0.011800
     36 HN           3.7070    -2.4150     0.6060 hn         1 DOQ       0.365000
     37 HA           3.6070    -0.1930     0.2510 h1         1 DOQ       0.016700
     38 HB           0.7630     0.5140     0.4310 hc         1 DOQ       0.098700
     39 HG1          2.5420     0.1300    -1.9910 hc         1 DOQ       0.000700
     40 HG2          0.8830     0.9020    -1.9400 hc         1 DOQ       0.000700
@<TRIPOS>BOND
     1     1     2 1   
     2     2     3 1   
     3     2     4 1   
     4     4     5 1   
     5     4     6 1   
     6     4    23 1   
     7     5    24 1   
     8     5    25 1   
     9     5    26 1   
    10     6     7 2   
    11     6    27 1   
    12     7     8 1   
    13     7    28 1   
    14     8     9 2   
    15     8    29 1   
    16     9    10 1   
    17     9    11 1   
    18    10    30 1   
    19    10    31 1   
    20    10    32 1   
    21    11    12 1   
    22    11    18 1   
    23    11    33 1   
    24    12    13 1   
    25    12    34 1   
    26    12    35 1   
    27    13    14 1   
    28    13    36 1   
    29    14    15 1   
    30    14    18 1   
    31    14    37 1   
    32    15    16 1   
    33    15    17 1   
    34    18    19 1   
    35    18    38 1   
    36    19    20 1   
    37    19    39 1   
    38    19    40 1   
    39    20    21 1   
    40    20    22 1   
@<TRIPOS>SUBSTRUCTURE
     1 DOQ         1 TEMP              0 ****  ****    0 ROOT
