@<TRIPOS>MOLECULE
DOQ
   40    40     1     0     0
SMALL
abcg2


@<TRIPOS>ATOM
      1 OAD         -5.5510    -0.9470     0.3950 o          1 DOQ      -0.753000
      2 CAQ         -5.3130     0.0720     1.0710 c          1 DOQ       0.725000
      3 OAG         -6.0160     0.5310     1.9930 o          1 DOQ      -0.753000
      4 CAS         -4.0090     0.8490     0.7540 c3         1 DOQ      -0.170500
      5 CAB         -4.3010     2.3370     0.5450 c3         1 DOQ      -0.052100
      6 CAK         -3.2900     0.2840    -0.4250 c2         1 DOQ      -0.147200
      7 CAI         -2.0560    -0.2320    -0.3990 ce         1 DOQ      -0.215000
      8 CAJ         -1.3770    -0.7540    -1.5720 ce         1 DOQ      -0.179000
      9 CAP         -0.1490    -1.2990    -1.6170 c2         1 DOQ      -0.096400
     10 CAA          0.4050    -1.7730    -2.9280 c3         1 DOQ      -0.038900
     11 CAT          0.7050    -1.4460    -0.3860 c5         1 DOQ      -0.042500
     12 CAL          1.7320    -2.5750    -0.4000 c5         1 DOQ       0.154800
     13 N            2.5320    -2.2410     0.7610 n7         1 DOQ      -0.837400
     14 CA           2.8550    -0.8230     0.6080 c5         1 DOQ       0.038500
     15 C            3.3010    -0.2060     1.9450 c          1 DOQ       0.746000
     16 O            2.4750    -0.2290     2.8780 o          1 DOQ      -0.744500
     17 OXT          4.4630     0.2470     1.9980 o          1 DOQ      -0.744500
     18 CB           1.5680    -0.2060     0.0120 c5         1 DOQ      -0.019700
     19 CG           1.8870     0.7550    -1.1230 c3         1 DOQ      -0.192400
     20 CD           2.6530     2.0100    -0.6700 c          1 DOQ       0.725000
     21 OE2          3.6080     2.3850    -1.3820 o          1 DOQ      -0.754500
     22 OE1          2.2300     2.5860     0.3540 o          1 DOQ      -0.754500
     23 HAS         -3.3570     0.7560     1.6320 hc         1 DOQ       0.051700
     24 HAB1        -4.9610     2.4930    -0.3110 hc         1 DOQ       0.010033
     25 HAB2        -4.7860     2.7660     1.4210 hc         1 DOQ       0.010033
     26 HAB3        -3.3820     2.8960     0.3590 hc         1 DOQ       0.010033
     27 HAK         -3.8130     0.3330    -1.3790 ha         1 DOQ       0.137000
     28 HAI         -1.5340    -0.2680     0.5540 ha         1 DOQ       0.189000
     29 HAJ         -1.9350    -0.6780    -2.5030 ha         1 DOQ       0.129000
     30 HAA1        -0.2780    -1.5570    -3.7490 hc         1 DOQ       0.016367
     31 HAA2         1.3630    -1.3020    -3.1560 hc         1 DOQ       0.016367
     32 HAA3         0.5880    -2.8510    -2.9240 hc         1 DOQ       0.016367
     33 HAT          0.0480    -1.6480     0.4640 hc         1 DOQ       0.065700
     34 HAL1         1.2770    -3.5640    -0.3050 h1         1 DOQ      -0.011800
     35 HAL2         2.3110    -2.5660    -1.3380 h1         1 DOQ      -0.011800
     36 HN           3.3730    -2.8030     0.8060 hn         1 DOQ       0.365000
     37 HA           3.6630    -0.6880    -0.1290 h1         1 DOQ       0.016700
     38 HB           1.0350     0.3550     0.7800 hc         1 DOQ       0.098700
     39 HG1          2.4490     0.2440    -1.9100 hc         1 DOQ       0.000700
     40 HG2          0.9490     1.0920    -1.5810 hc         1 DOQ       0.000700
@<TRIPOS>BOND
     1     1     2 1   
     2     2     3 1   
     3     2     4 1   
     4     4     5 1   
     5     4     6 1   
     6     4    23 1   
     7     5    24 1   
     8     5    25 1   
     9     5    26 1   
    10     6     7 2   
    11     6    27 1   
    12     7     8 1   
    13     7    28 1   
    14     8     9 2   
    15     8    29 1   
    16     9    10 1   
    17     9    11 1   
    18    10    30 1   
    19    10    31 1   
    20    10    32 1   
    21    11    12 1   
    22    11    18 1   
    23    11    33 1   
    24    12    13 1   
    25    12    34 1   
    26    12    35 1   
    27    13    14 1   
    28    13    36 1   
    29    14    15 1   
    30    14    18 1   
    31    14    37 1   
    32    15    16 1   
    33    15    17 1   
    34    18    19 1   
    35    18    38 1   
    36    19    20 1   
    37    19    39 1   
    38    19    40 1   
    39    20    21 1   
    40    20    22 1   
@<TRIPOS>SUBSTRUCTURE
     1 DOQ         1 TEMP              0 ****  ****    0 ROOT
