@<TRIPOS>MOLECULE
DOR
   16    16     1     0     0
SMALL
No Charge or Current Charge


@<TRIPOS>ATOM
      1 O2          -2.3980    -1.7320     0.1960 o          1 DOR      -0.622000
      2 C2          -1.5490    -0.8940    -0.0420 c          1 DOR       0.634000
      3 N1          -0.3440    -1.2170    -0.6090 ns         1 DOR      -0.459900
      4 N3          -1.7270     0.4170     0.2580 ns         1 DOR      -0.469500
      5 C4          -0.9020     1.4670    -0.0010 c          1 DOR       0.596000
      6 O4          -1.1170     2.5690     0.4790 o          1 DOR      -0.576000
      7 C5           0.3030     1.1900    -0.9020 c6         1 DOR      -0.146400
      8 C6           0.7800    -0.2840    -0.8840 c6         1 DOR      -0.057300
      9 C7           1.9990    -0.4740     0.0790 c          1 DOR       0.702000
     10 O72          3.0550    -0.8030    -0.4430 o          1 DOR      -0.707500
     11 O71          1.7500    -0.7510     1.2450 o          1 DOR      -0.707500
     12 HN1         -0.2070    -2.2030    -0.7990 hn         1 DOR       0.309500
     13 HN3         -2.5660     0.6350     0.7700 hn         1 DOR       0.316500
     14 H51          1.1010     1.9230    -0.7300 hc         1 DOR       0.067200
     15 H52         -0.0710     1.3720    -1.9180 hc         1 DOR       0.067200
     16 H6           1.1590    -0.5220    -1.8880 h1         1 DOR       0.054700
@<TRIPOS>BOND
     1     1     2 2   
     2     2     3 1   
     3     2     4 1   
     4     3     8 1   
     5     3    12 1   
     6     4     5 1   
     7     4    13 1   
     8     5     6 2   
     9     5     7 1   
    10     7     8 1   
    11     7    14 1   
    12     7    15 1   
    13     8     9 1   
    14     8    16 1   
    15     9    10 1   
    16     9    11 1   
@<TRIPOS>SUBSTRUCTURE
     1 DOR         1 TEMP              0 ****  ****    0 ROOT
