@<TRIPOS>MOLECULE
DOR
   16    16     1     0     0
SMALL
abcg2


@<TRIPOS>ATOM
      1 O2          -2.2460    -1.7150     0.3800 o          1 DOR      -0.622000
      2 C2          -1.4160    -0.9120    -0.0110 c          1 DOR       0.634000
      3 N1          -0.4470    -1.1770    -0.9050 ns         1 DOR      -0.459900
      4 N3          -1.4710     0.4110     0.4250 ns         1 DOR      -0.469500
      5 C4          -0.7040     1.4570    -0.0100 c          1 DOR       0.596000
      6 O4          -0.8530     2.5750     0.4390 o          1 DOR      -0.576000
      7 C5           0.2770     1.1080    -1.0930 c6         1 DOR      -0.146400
      8 C6           0.7310    -0.3410    -0.9810 c6         1 DOR      -0.057300
      9 C7           1.6850    -0.5140     0.2340 c          1 DOR       0.702000
     10 O72          2.7970     0.0300     0.1020 o          1 DOR      -0.707500
     11 O71          1.2500    -1.1410     1.2130 o          1 DOR      -0.707500
     12 HN1         -0.3230    -2.1580    -1.1040 hn         1 DOR       0.309500
     13 HN3         -2.1880     0.6130     1.1090 hn         1 DOR       0.316500
     14 H51          1.1260     1.7870    -1.0430 hc         1 DOR       0.067200
     15 H52         -0.2200     1.2800    -2.0540 hc         1 DOR       0.067200
     16 H6           1.2670    -0.6080    -1.8920 h1         1 DOR       0.054700
@<TRIPOS>BOND
     1     1     2 2   
     2     2     3 1   
     3     2     4 1   
     4     3     8 1   
     5     3    12 1   
     6     4     5 1   
     7     4    13 1   
     8     5     6 2   
     9     5     7 1   
    10     7     8 1   
    11     7    14 1   
    12     7    15 1   
    13     8     9 1   
    14     8    16 1   
    15     9    10 1   
    16     9    11 1   
@<TRIPOS>SUBSTRUCTURE
     1 DOR         1 TEMP              0 ****  ****    0 ROOT
