@<TRIPOS>MOLECULE
DOV
   66    70     1     0     0
SMALL
No Charge or Current Charge


@<TRIPOS>ATOM
      1 F27          5.9900    -2.4060    -0.7370 f          1 DOV      -0.259000
      2 C4           5.9840    -1.2420     0.0600 c6         1 DOV       0.217300
      3 C5           7.3850    -0.6020    -0.1230 c6         1 DOV      -0.114400
      4 C6           7.4900     0.7620     0.5950 c6         1 DOV      -0.073400
      5 C1           6.3790     1.7160     0.1040 c6         1 DOV      -0.089400
      6 C2           4.9830     1.0830     0.3060 c6         1 DOV       0.121700
      7 N7           3.9350     2.0040    -0.1160 ns         1 DOV      -0.506900
      8 C8           2.7180     1.6450    -0.6410 c          1 DOV       0.574000
      9 O28          2.1010     2.4800    -1.2850 o          1 DOV      -0.566000
     10 C9           2.2570     0.1700    -0.5120 c6         1 DOV      -0.177700
     11 C10          3.3960    -0.7970    -0.0370 c6         1 DOV       0.184500
     12 N29          3.1290    -2.1580    -0.5340 n8         1 DOV      -0.995200
     13 C3           4.8260    -0.2910    -0.3970 c6         1 DOV      -0.100700
     14 C11          1.0390     0.0230     0.4490 c5         1 DOV       0.385700
     15 N15          0.3880    -1.2930     0.2420 n7         1 DOV      -0.835400
     16 C14         -1.0250    -1.0340     0.5180 c5         1 DOV       0.109500
     17 C19         -2.0120    -2.1170     0.0440 c6         1 DOV      -0.058400
     18 C18         -3.4620    -1.5600     0.1870 c6         1 DOV      -0.111400
     19 C17         -3.6530    -0.1770    -0.5420 c6         1 DOV       0.193500
     20 C16         -2.5720     0.8620    -0.0920 c6         1 DOV      -0.067400
     21 C13         -1.1810     0.2340    -0.3080 c5         1 DOV       0.119500
     22 N12         -0.0360     1.0130     0.1920 n7         1 DOV      -0.869400
     23 N20         -5.0390     0.3840    -0.4440 n3         1 DOV      -0.736600
     24 C25         -6.0570    -0.4350    -1.1790 c6         1 DOV       0.140800
     25 C24         -7.4760     0.2250    -1.1490 c6         1 DOV       0.163300
     26 N23         -7.9570     0.5030     0.2420 n3         1 DOV      -0.714600
     27 C26         -8.3460    -0.7210     0.9830 c3         1 DOV       0.152100
     28 C22         -6.9360     1.3300     0.9620 c6         1 DOV       0.163300
     29 C21         -5.5090     0.6840     0.9510 c6         1 DOV       0.140800
     30 H4           5.8410    -1.5480     1.1060 h1         1 DOV       0.060700
     31 H51C         8.1560    -1.2840     0.2600 hc         1 DOV       0.057700
     32 H52C         7.5920    -0.4680    -1.1940 hc         1 DOV       0.057700
     33 H3           4.9000    -0.1490    -1.4840 hc         1 DOV       0.068700
     34 H61C         7.4090     0.6200     1.6820 hc         1 DOV       0.047200
     35 H62C         8.4770     1.2090     0.4090 hc         1 DOV       0.047200
     36 H11C         6.4440     2.6670     0.6500 hc         1 DOV       0.053200
     37 H12C         6.5330     1.9520    -0.9590 hc         1 DOV       0.053200
     38 H2           4.8480     0.9300     1.3880 h1         1 DOV       0.039700
     39 H7           4.1820     2.9800    -0.2270 hn         1 DOV       0.312500
     40 H9           1.9120    -0.0920    -1.5200 hc         1 DOV       0.083700
     41 H10          3.3550    -0.8590     1.0640 h1         1 DOV       0.065700
     42 H11          1.3680     0.1260     1.4950 h2         1 DOV       0.061700
     43 H291         2.1800    -2.4060    -0.2230 hn         1 DOV       0.412500
     44 H292         3.0620    -2.1360    -1.5560 hn         1 DOV       0.412500
     45 H15          0.4610    -1.4870    -0.7580 hn         1 DOV       0.399000
     46 H12         -0.3020     1.3940     1.1050 hn         1 DOV       0.438000
     47 H14         -1.1920    -0.8450     1.5900 h1         1 DOV       0.067700
     48 H191        -1.8140    -2.3870    -1.0030 hc         1 DOV       0.050200
     49 H192        -1.8920    -3.0310     0.6420 hc         1 DOV       0.050200
     50 H13         -1.0580     0.0220    -1.3810 h1         1 DOV       0.059700
     51 H181        -4.1640    -2.3050    -0.2090 hc         1 DOV       0.044700
     52 H182        -3.6910    -1.4570     1.2560 hc         1 DOV       0.044700
     53 H17         -3.4530    -0.3660    -1.6090 h1         1 DOV       0.053700
     54 H161        -2.6640     1.7860    -0.6790 hc         1 DOV       0.056700
     55 H162        -2.6970     1.1290     0.9650 hc         1 DOV       0.056700
     56 H251        -5.7540    -0.5620    -2.2290 h1         1 DOV       0.033200
     57 H252        -6.1350    -1.4410    -0.7450 h1         1 DOV       0.033200
     58 H211        -5.5400    -0.2330     1.5560 h1         1 DOV       0.033200
     59 H212        -4.8230     1.3780     1.4550 h1         1 DOV       0.033200
     60 H241        -7.4260     1.1660    -1.7170 h1         1 DOV       0.057700
     61 H242        -8.1860    -0.4240    -1.6830 h1         1 DOV       0.057700
     62 H261        -7.4930    -1.3990     1.1210 h1         1 DOV       0.028700
     63 H262        -8.7410    -0.4620     1.9740 h1         1 DOV       0.028700
     64 H263        -9.1300    -1.2660     0.4400 h1         1 DOV       0.028700
     65 H221        -6.8630     2.3200     0.4890 h1         1 DOV       0.057700
     66 H222        -7.2430     1.5040     2.0040 h1         1 DOV       0.057700
@<TRIPOS>BOND
     1     1     2 1   
     2     2     3 1   
     3     2    13 1   
     4     2    30 1   
     5     3     4 1   
     6     3    31 1   
     7     3    32 1   
     8     4     5 1   
     9     4    34 1   
    10     4    35 1   
    11     5     6 1   
    12     5    36 1   
    13     5    37 1   
    14     6     7 1   
    15     6    13 1   
    16     6    38 1   
    17     7     8 1   
    18     7    39 1   
    19     8     9 2   
    20     8    10 1   
    21    10    11 1   
    22    10    14 1   
    23    10    40 1   
    24    11    12 1   
    25    11    13 1   
    26    11    41 1   
    27    12    43 1   
    28    12    44 1   
    29    13    33 1   
    30    14    15 1   
    31    14    22 1   
    32    14    42 1   
    33    15    16 1   
    34    15    45 1   
    35    16    17 1   
    36    16    21 1   
    37    16    47 1   
    38    17    18 1   
    39    17    48 1   
    40    17    49 1   
    41    18    19 1   
    42    18    51 1   
    43    18    52 1   
    44    19    20 1   
    45    19    23 1   
    46    19    53 1   
    47    20    21 1   
    48    20    54 1   
    49    20    55 1   
    50    21    22 1   
    51    21    50 1   
    52    22    46 1   
    53    23    24 1   
    54    23    29 1   
    55    24    25 1   
    56    24    56 1   
    57    24    57 1   
    58    25    26 1   
    59    25    60 1   
    60    25    61 1   
    61    26    27 1   
    62    26    28 1   
    63    27    62 1   
    64    27    63 1   
    65    27    64 1   
    66    28    29 1   
    67    28    65 1   
    68    28    66 1   
    69    29    58 1   
    70    29    59 1   
@<TRIPOS>SUBSTRUCTURE
     1 DOV         1 TEMP              0 ****  ****    0 ROOT
