@<TRIPOS>MOLECULE
DOV
   66    70     1     0     0
SMALL
bcc


@<TRIPOS>ATOM
      1 F27          5.5320    -2.3660    -0.9640 f          1 DOV      -0.240300
      2 C4           5.8590    -1.2310    -0.2180 c6         1 DOV       0.198600
      3 C5           7.1250    -0.6650    -0.8400 c6         1 DOV      -0.114400
      4 C6           7.5480     0.6550    -0.2110 c6         1 DOV      -0.073400
      5 C1           6.4070     1.6580    -0.2660 c6         1 DOV      -0.089400
      6 C2           5.1840     1.0650     0.4160 c6         1 DOV       0.121700
      7 N7           4.1050     2.0290     0.4550 ns         1 DOV      -0.573900
      8 C8           2.7800     1.7850     0.4700 c          1 DOV       0.716500
      9 O28          1.9950     2.6720     0.7780 o          1 DOV      -0.641500
     10 C9           2.3240     0.3790     0.0790 c6         1 DOV      -0.177700
     11 C10          3.4120    -0.6620     0.4680 c6         1 DOV       0.184500
     12 N29          3.1020    -2.0500     0.2060 n8         1 DOV      -0.884800
     13 C3           4.7090    -0.2280    -0.2390 c6         1 DOV      -0.100700
     14 C11          0.9100     0.1650     0.6430 c5         1 DOV       0.385700
     15 N15          0.4060    -1.2050     0.5150 n7         1 DOV      -0.780200
     16 C14         -1.0360    -1.0090     0.5810 c5         1 DOV       0.109500
     17 C19         -1.9570    -2.1420     0.1950 c6         1 DOV      -0.058400
     18 C18         -3.3950    -1.6170     0.3110 c6         1 DOV      -0.111400
     19 C17         -3.6370    -0.3300    -0.5050 c6         1 DOV       0.193500
     20 C16         -2.6270     0.7740    -0.1500 c6         1 DOV      -0.067400
     21 C13         -1.2400     0.1930    -0.3240 c5         1 DOV       0.119500
     22 N12         -0.0850     1.0350    -0.0380 n7         1 DOV      -0.814200
     23 N20         -5.0000     0.1760    -0.4690 n3         1 DOV      -0.736600
     24 C25         -5.9500    -0.6300    -1.2130 c6         1 DOV       0.140800
     25 C24         -7.2600     0.1350    -1.3660 c6         1 DOV       0.163300
     26 N23         -7.8370     0.5570    -0.1010 n3         1 DOV      -0.714600
     27 C26         -8.4860    -0.5170     0.6230 c3         1 DOV       0.152100
     28 C22         -6.8400     1.2680     0.6810 c6         1 DOV       0.163300
     29 C21         -5.5260     0.5080     0.8430 c6         1 DOV       0.140800
     30 H4           6.0500    -1.5600     0.8090 h1         1 DOV       0.060700
     31 H51C         7.9260    -1.4030    -0.7590 hc         1 DOV       0.057700
     32 H52C         6.9400    -0.5080    -1.9080 hc         1 DOV       0.057700
     33 H3           4.4810    -0.0170    -1.2940 hc         1 DOV       0.068700
     34 H61C         7.8490     0.4960     0.8300 hc         1 DOV       0.047200
     35 H62C         8.4260     1.0440    -0.7290 hc         1 DOV       0.047200
     36 H11C         6.6910     2.5880     0.2340 hc         1 DOV       0.053200
     37 H12C         6.1650     1.9090    -1.3030 hc         1 DOV       0.053200
     38 H2           5.4740     0.8260     1.4500 h1         1 DOV       0.039700
     39 H7           4.3620     2.9530     0.7750 hn         1 DOV       0.312500
     40 H9           2.2340     0.3670    -1.0160 hc         1 DOV       0.083700
     41 H10          3.5790    -0.5850     1.5510 h1         1 DOV       0.065700
     42 H11          0.9290     0.3910     1.7160 h2         1 DOV       0.061700
     43 H291         2.2280    -2.2800     0.6620 hn         1 DOV       0.357300
     44 H292         2.9600    -2.2020    -0.7860 hn         1 DOV       0.357300
     45 H15          0.6220    -1.5510    -0.4170 hn         1 DOV       0.343800
     46 H12         -0.3330     1.8080     0.5630 hn         1 DOV       0.382800
     47 H14         -1.2760    -0.7100     1.6120 h1         1 DOV       0.067700
     48 H191        -1.7520    -2.4630    -0.8320 hc         1 DOV       0.050200
     49 H192        -1.8210    -3.0120     0.8410 hc         1 DOV       0.050200
     50 H13         -1.1630    -0.1660    -1.3630 h1         1 DOV       0.059700
     51 H181        -4.0940    -2.3920    -0.0120 hc         1 DOV       0.044700
     52 H182        -3.6110    -1.4240     1.3670 hc         1 DOV       0.044700
     53 H17         -3.4500    -0.5850    -1.5570 h1         1 DOV       0.053700
     54 H161        -2.7940     1.6350    -0.8020 hc         1 DOV       0.056700
     55 H162        -2.7550     1.1120     0.8830 hc         1 DOV       0.056700
     56 H251        -5.5400    -0.8410    -2.2040 h1         1 DOV       0.033200
     57 H252        -6.1420    -1.6070    -0.7380 h1         1 DOV       0.033200
     58 H211        -5.6850    -0.3800     1.4760 h1         1 DOV       0.033200
     59 H212        -4.8200     1.1470     1.3770 h1         1 DOV       0.033200
     60 H241        -7.0710     1.0260    -1.9740 h1         1 DOV       0.057700
     61 H242        -7.9870    -0.4760    -1.9070 h1         1 DOV       0.057700
     62 H261        -7.8340    -1.3460     0.9290 h1         1 DOV       0.028700
     63 H262        -8.9520    -0.1180     1.5270 h1         1 DOV       0.028700
     64 H263        -9.2810    -0.9410     0.0070 h1         1 DOV       0.028700
     65 H221        -6.6250     2.2200     0.1820 h1         1 DOV       0.057700
     66 H222        -7.2560     1.5050     1.6630 h1         1 DOV       0.057700
@<TRIPOS>BOND
     1     1     2 1   
     2     2     3 1   
     3     2    13 1   
     4     2    30 1   
     5     3     4 1   
     6     3    31 1   
     7     3    32 1   
     8     4     5 1   
     9     4    34 1   
    10     4    35 1   
    11     5     6 1   
    12     5    36 1   
    13     5    37 1   
    14     6     7 1   
    15     6    13 1   
    16     6    38 1   
    17     7     8 1   
    18     7    39 1   
    19     8     9 2   
    20     8    10 1   
    21    10    11 1   
    22    10    14 1   
    23    10    40 1   
    24    11    12 1   
    25    11    13 1   
    26    11    41 1   
    27    12    43 1   
    28    12    44 1   
    29    13    33 1   
    30    14    15 1   
    31    14    22 1   
    32    14    42 1   
    33    15    16 1   
    34    15    45 1   
    35    16    17 1   
    36    16    21 1   
    37    16    47 1   
    38    17    18 1   
    39    17    48 1   
    40    17    49 1   
    41    18    19 1   
    42    18    51 1   
    43    18    52 1   
    44    19    20 1   
    45    19    23 1   
    46    19    53 1   
    47    20    21 1   
    48    20    54 1   
    49    20    55 1   
    50    21    22 1   
    51    21    50 1   
    52    22    46 1   
    53    23    24 1   
    54    23    29 1   
    55    24    25 1   
    56    24    56 1   
    57    24    57 1   
    58    25    26 1   
    59    25    60 1   
    60    25    61 1   
    61    26    27 1   
    62    26    28 1   
    63    27    62 1   
    64    27    63 1   
    65    27    64 1   
    66    28    29 1   
    67    28    65 1   
    68    28    66 1   
    69    29    58 1   
    70    29    59 1   
@<TRIPOS>SUBSTRUCTURE
     1 DOV         1 TEMP              0 ****  ****    0 ROOT
