@<TRIPOS>MOLECULE
DOX
   14    14     1     0     0
SMALL
abcg2


@<TRIPOS>ATOM
      1 C1          -1.1500     0.2550     0.7280 c6         1 DOX       0.115600
      2 C2          -1.1690    -0.2180    -0.7120 c6         1 DOX       0.115600
      3 O1          -0.0110     0.2110    -1.3980 os         1 DOX      -0.446000
      4 C3           1.1560    -0.2340    -0.7370 c6         1 DOX       0.115600
      5 C4           1.1750     0.2380     0.7030 c6         1 DOX       0.115600
      6 O2           0.0160    -0.1910     1.3900 os         1 DOX      -0.446000
      7 H11         -1.2150     1.3520     0.7610 h1         1 DOX       0.053700
      8 H12         -2.0110    -0.1460     1.2670 h1         1 DOX       0.053700
      9 H21         -1.2490    -1.3140    -0.7420 h1         1 DOX       0.053700
     10 H22         -2.0350     0.1950    -1.2320 h1         1 DOX       0.053700
     11 H31          1.2200    -1.3320    -0.7700 h1         1 DOX       0.053700
     12 H32          2.0170     0.1670    -1.2750 h1         1 DOX       0.053700
     13 H41          2.0410    -0.1760     1.2230 h1         1 DOX       0.053700
     14 H42          1.2560     1.3340     0.7330 h1         1 DOX       0.053700
@<TRIPOS>BOND
     1     1     2 1   
     2     1     6 1   
     3     1     7 1   
     4     1     8 1   
     5     2     3 1   
     6     2     9 1   
     7     2    10 1   
     8     3     4 1   
     9     4     5 1   
    10     4    11 1   
    11     4    12 1   
    12     5     6 1   
    13     5    13 1   
    14     5    14 1   
@<TRIPOS>SUBSTRUCTURE
     1 DOX         1 TEMP              0 ****  ****    0 ROOT
