@<TRIPOS>MOLECULE
DOX
   14    14     1     0     0
SMALL
No Charge or Current Charge


@<TRIPOS>ATOM
      1 C1          -1.1940     0.2640     0.7460 c6         1 DOX       0.115600
      2 C2          -1.2130    -0.2260    -0.7290 c6         1 DOX       0.115600
      3 O1          -0.0110     0.2190    -1.4050 os         1 DOX      -0.446000
      4 C3           1.2000    -0.2440    -0.7550 c6         1 DOX       0.115600
      5 C4           1.2190     0.2470     0.7200 c6         1 DOX       0.115600
      6 O2           0.0170    -0.1990     1.3960 os         1 DOX      -0.446000
      7 H11         -1.2340     1.3620     0.7820 h1         1 DOX       0.053700
      8 H12         -2.0670    -0.1300     1.2860 h1         1 DOX       0.053700
      9 H21         -1.2700    -1.3240    -0.7640 h1         1 DOX       0.053700
     10 H22         -2.0920     0.1800    -1.2490 h1         1 DOX       0.053700
     11 H31          1.2400    -1.3420    -0.7910 h1         1 DOX       0.053700
     12 H32          2.0730     0.1500    -1.2940 h1         1 DOX       0.053700
     13 H41          2.0980    -0.1600     1.2410 h1         1 DOX       0.053700
     14 H42          1.2760     1.3440     0.7550 h1         1 DOX       0.053700
@<TRIPOS>BOND
     1     1     2 1   
     2     1     6 1   
     3     1     7 1   
     4     1     8 1   
     5     2     3 1   
     6     2     9 1   
     7     2    10 1   
     8     3     4 1   
     9     4     5 1   
    10     4    11 1   
    11     4    12 1   
    12     5     6 1   
    13     5    13 1   
    14     5    14 1   
@<TRIPOS>SUBSTRUCTURE
     1 DOX         1 TEMP              0 ****  ****    0 ROOT
