@<TRIPOS>MOLECULE
DOY
   36    38     1     0     0
SMALL
bcc


@<TRIPOS>ATOM
      1 C1           2.7860    -3.3680    -0.0540 ca         1 DOY      -0.173000
      2 C2           1.4480    -3.1590    -0.3460 ca         1 DOY      -0.089000
      3 C3           0.9200    -1.8710    -0.3680 ca         1 DOY      -0.026100
      4 S4          -0.7520    -1.6340    -0.8770 ss         1 DOY      -0.301000
      5 C5          -1.5220    -0.9650     0.6480 c3         1 DOY       0.088700
      6 C6          -2.7950    -0.2530     0.2660 ca         1 DOY      -0.069300
      7 C7          -2.8510     0.6820    -0.7660 ca         1 DOY      -0.102500
      8 C8          -4.0380     1.3400    -1.0550 ca         1 DOY      -0.136000
      9 C9          -5.1860     1.0760    -0.3190 ca         1 DOY      -0.132000
     10 C10         -5.1410     0.1430     0.7070 ca         1 DOY      -0.136000
     11 C11         -3.9530    -0.5170     0.9930 ca         1 DOY      -0.102500
     12 C12         -0.5410    -0.0960     1.4470 c3         1 DOY      -0.162400
     13 C13          0.1680     0.9480     0.6150 c          1 DOY       0.722500
     14 O14         -0.2120     2.1070     0.5850 o          1 DOY      -0.609500
     15 N15          1.2420     0.5390    -0.1100 n          1 DOY      -0.353000
     16 C16          1.9840     1.5480    -0.8440 c3         1 DOY      -0.051000
     17 C17          2.8160     2.5050     0.0370 c          1 DOY       0.926600
     18 O18          3.2610     3.5030    -0.5620 o          1 DOY      -0.830300
     19 O19          2.9970     2.1870     1.2240 o          1 DOY      -0.830300
     20 C20          1.7400    -0.7770    -0.0640 ca         1 DOY       0.119600
     21 C21          3.0770    -1.0000     0.2550 ca         1 DOY      -0.136000
     22 C22          3.5990    -2.2840     0.2460 ca         1 DOY      -0.108000
     23 H1           3.1880    -4.3730    -0.0520 ha         1 DOY       0.118000
     24 H2           0.8020    -3.9980    -0.5720 ha         1 DOY       0.128000
     25 H5          -1.7860    -1.8120     1.2850 h1         1 DOY       0.060700
     26 H7          -1.9720     0.8920    -1.3610 ha         1 DOY       0.140500
     27 H8          -4.0650     2.0630    -1.8600 ha         1 DOY       0.123500
     28 H9          -6.1110     1.5910    -0.5470 ha         1 DOY       0.119000
     29 H10         -6.0300    -0.0770     1.2840 ha         1 DOY       0.123500
     30 H11         -3.9280    -1.2480     1.7920 ha         1 DOY       0.140500
     31 H12         -1.1050     0.4160     2.2280 hc         1 DOY       0.070700
     32 H12A         0.1760    -0.7450     1.9510 hc         1 DOY       0.070700
     33 H16          2.6540     1.0330    -1.5340 h1         1 DOY       0.041700
     34 H16A         1.2930     2.1230    -1.4620 h1         1 DOY       0.041700
     35 H21          3.7020    -0.1590     0.5220 ha         1 DOY       0.187000
     36 H22          4.6420    -2.4370     0.4910 ha         1 DOY       0.125000
@<TRIPOS>BOND
     1     1     2 ar  
     2     1    22 ar  
     3     1    23 1   
     4     2     3 ar  
     5     2    24 1   
     6     3     4 1   
     7     3    20 ar  
     8     4     5 1   
     9     5     6 1   
    10     5    12 1   
    11     5    25 1   
    12     6     7 ar  
    13     6    11 ar  
    14     7     8 ar  
    15     7    26 1   
    16     8     9 ar  
    17     8    27 1   
    18     9    10 ar  
    19     9    28 1   
    20    10    11 ar  
    21    10    29 1   
    22    11    30 1   
    23    12    13 1   
    24    12    31 1   
    25    12    32 1   
    26    13    14 2   
    27    13    15 1   
    28    15    16 1   
    29    15    20 1   
    30    16    17 1   
    31    16    33 1   
    32    16    34 1   
    33    17    18 1   
    34    17    19 1   
    35    20    21 ar  
    36    21    22 ar  
    37    21    35 1   
    38    22    36 1   
@<TRIPOS>SUBSTRUCTURE
     1 DOY         1 TEMP              0 ****  ****    0 ROOT
