@<TRIPOS>MOLECULE
DOY
   36    38     1     0     0
SMALL
No Charge or Current Charge


@<TRIPOS>ATOM
      1 C1           2.7100    -3.4900     0.0210 ca         1 DOY      -0.155000
      2 C2           1.3920    -3.2010    -0.3630 ca         1 DOY      -0.071000
      3 C3           0.9590    -1.8680    -0.4650 ca         1 DOY      -0.153000
      4 S4          -0.7280    -1.5600    -0.9730 ss         1 DOY      -0.222000
      5 C5          -1.5120    -0.8990     0.5640 c3         1 DOY       0.136600
      6 C6          -2.8570    -0.2330     0.2660 ca         1 DOY      -0.069300
      7 C7          -3.0030     0.6840    -0.7970 ca         1 DOY      -0.084500
      8 C8          -4.2460     1.2890    -1.0510 ca         1 DOY      -0.118000
      9 C9          -5.3550     0.9840    -0.2450 ca         1 DOY      -0.114000
     10 C10         -5.2190     0.0740     0.8160 ca         1 DOY      -0.118000
     11 C11         -3.9760    -0.5310     1.0710 ca         1 DOY      -0.084500
     12 C12         -0.5380     0.0150     1.3340 c3         1 DOY      -0.162400
     13 C13          0.2000     0.9910     0.4100 c          1 DOY       0.580000
     14 O14         -0.2450     2.1200     0.2360 o          1 DOY      -0.534000
     15 N15          1.4160     0.5720    -0.1940 n          1 DOY      -0.193400
     16 C16          2.2870     1.6130    -0.8120 c3         1 DOY      -0.051000
     17 C17          2.8350     2.6730     0.1720 c          1 DOY       0.716000
     18 O18          2.9230     3.8290    -0.2190 o          1 DOY      -0.725000
     19 O19          3.1650     2.3170     1.2950 o          1 DOY      -0.725000
     20 C20          1.8650    -0.8000    -0.2450 ca         1 DOY       0.027000
     21 C21          3.1670    -1.1090     0.2070 ca         1 DOY      -0.118000
     22 C22          3.5950    -2.4430     0.3180 ca         1 DOY      -0.090000
     23 H1           3.0390    -4.5230     0.1060 ha         1 DOY       0.100000
     24 H2           0.7020    -4.0150    -0.5740 ha         1 DOY       0.110000
     25 H5          -1.7080    -1.7680     1.2060 h1         1 DOY       0.060700
     26 H7          -2.1540     0.9320    -1.4310 ha         1 DOY       0.122500
     27 H8          -4.3490     1.9940    -1.8720 ha         1 DOY       0.105500
     28 H9          -6.3170     1.4530    -0.4420 ha         1 DOY       0.101000
     29 H10         -6.0770    -0.1620     1.4420 ha         1 DOY       0.105500
     30 H11         -3.8840    -1.2320     1.8970 ha         1 DOY       0.122500
     31 H12         -1.0920     0.5680     2.1000 hc         1 DOY       0.070700
     32 H12A         0.1940    -0.6450     1.8130 hc         1 DOY       0.070700
     33 H16          3.1440     1.1370    -1.3030 h1         1 DOY       0.041700
     34 H16A         1.7110     2.1300    -1.5900 h1         1 DOY       0.041700
     35 H21          3.8550    -0.3120     0.4780 ha         1 DOY       0.169000
     36 H22          4.6090    -2.6630     0.6460 ha         1 DOY       0.107000
@<TRIPOS>BOND
     1     1     2 ar  
     2     1    22 ar  
     3     1    23 1   
     4     2     3 ar  
     5     2    24 1   
     6     3     4 1   
     7     3    20 ar  
     8     4     5 1   
     9     5     6 1   
    10     5    12 1   
    11     5    25 1   
    12     6     7 ar  
    13     6    11 ar  
    14     7     8 ar  
    15     7    26 1   
    16     8     9 ar  
    17     8    27 1   
    18     9    10 ar  
    19     9    28 1   
    20    10    11 ar  
    21    10    29 1   
    22    11    30 1   
    23    12    13 1   
    24    12    31 1   
    25    12    32 1   
    26    13    14 2   
    27    13    15 1   
    28    15    16 1   
    29    15    20 1   
    30    16    17 1   
    31    16    33 1   
    32    16    34 1   
    33    17    18 1   
    34    17    19 1   
    35    20    21 ar  
    36    21    22 ar  
    37    21    35 1   
    38    22    36 1   
@<TRIPOS>SUBSTRUCTURE
     1 DOY         1 TEMP              0 ****  ****    0 ROOT
