@<TRIPOS>MOLECULE
DP0
   54    55     1     0     0
SMALL
abcg2


@<TRIPOS>ATOM
      1 C1           0.9380    -0.0470     0.4760 c3         1 DP0      -0.120000
      2 O1           1.6340     0.6790     2.6810 o          1 DP0      -0.605100
      3 C2          -0.3480    -0.6860    -0.0980 c3         1 DP0      -0.068400
      4 N2          -2.8060    -0.4410    -0.3740 n3         1 DP0      -0.755600
      5 C3          -1.6430    -0.0520     0.4040 c3         1 DP0       0.184800
      6 N3           2.0110    -2.0120    -0.5320 nb         1 DP0      -0.682000
      7 C4          -3.1900    -1.8580    -0.2920 c3         1 DP0       0.200000
      8 N4           0.5520    -1.2800     2.5520 nt         1 DP0      -0.602000
      9 C5          -3.9850     0.4320    -0.2490 c3         1 DP0       0.200000
     10 C6           0.9980     1.3960    -0.0120 ca         1 DP0      -0.066300
     11 C7           2.1830    -0.8180     0.0120 ca         1 DP0       0.342300
     12 C8           1.0500    -0.1580     2.0140 c          1 DP0       0.609100
     13 C9          -2.5580    -2.7020    -1.3980 c3         1 DP0      -0.097100
     14 C10         -3.0060    -2.4950     1.0860 c3         1 DP0      -0.097100
     15 C11         -3.6690     1.8820     0.1020 c3         1 DP0      -0.097100
     16 C12         -4.7650     0.4150    -1.5640 c3         1 DP0      -0.097100
     17 C13          0.4870     2.4690     0.7170 ca         1 DP0      -0.093000
     18 C14          1.4540     1.6470    -1.3060 ca         1 DP0      -0.093000
     19 C15          3.4530    -0.2750     0.2130 ca         1 DP0      -0.135000
     20 C16          0.4570     3.7490     0.1780 ca         1 DP0      -0.115000
     21 C17          1.4280     2.9240    -1.8470 ca         1 DP0      -0.115000
     22 C18          4.5610    -1.0040    -0.1760 ca         1 DP0      -0.076000
     23 C19          0.9340     3.9860    -1.1030 ca         1 DP0      -0.107000
     24 C20          3.0790    -2.7090    -0.9070 ca         1 DP0       0.334900
     25 C21          4.3760    -2.2540    -0.7540 ca         1 DP0      -0.160000
     26 H2          -0.3090    -0.5820    -1.1850 hc         1 DP0       0.064700
     27 H2A         -0.3350    -1.7600     0.0810 hc         1 DP0       0.064700
     28 H3          -1.7540    -0.2410     1.4830 h1         1 DP0       0.034700
     29 H3A         -1.5330     1.0230     0.2980 h1         1 DP0       0.034700
     30 H4          -4.2650    -1.8930    -0.4820 h1         1 DP0       0.030200
     31 HN4          0.1390    -2.0130     2.0040 hn         1 DP0       0.317000
     32 HN4A         0.6980    -1.4700     3.5300 hn         1 DP0       0.317000
     33 H5          -4.6490     0.0560     0.5460 h1         1 DP0       0.030200
     34 H9          -1.4760    -2.7880    -1.3070 hc         1 DP0       0.036283
     35 H9A         -2.9670    -3.7140    -1.3800 hc         1 DP0       0.036283
     36 H9B         -2.7780    -2.2710    -2.3760 hc         1 DP0       0.036283
     37 H10         -3.4640    -1.8930     1.8720 hc         1 DP0       0.036283
     38 H10A        -3.4810    -3.4770     1.1030 hc         1 DP0       0.036283
     39 H10B        -1.9570    -2.6440     1.3490 hc         1 DP0       0.036283
     40 H11         -4.5940     2.4580     0.0730 hc         1 DP0       0.036283
     41 H11A        -3.2500     2.0010     1.1010 hc         1 DP0       0.036283
     42 H11B        -2.9810     2.3360    -0.6140 hc         1 DP0       0.036283
     43 H12         -5.0150    -0.5940    -1.8930 hc         1 DP0       0.036283
     44 H12A        -5.7020     0.9650    -1.4640 hc         1 DP0       0.036283
     45 H12B        -4.1770     0.8840    -2.3560 hc         1 DP0       0.036283
     46 H13          0.0950     2.3230     1.7130 ha         1 DP0       0.118500
     47 H14          1.8350     0.8350    -1.9150 ha         1 DP0       0.118500
     48 H15          3.5700     0.7020     0.6620 ha         1 DP0       0.147000
     49 H16          0.0560     4.5640     0.7670 ha         1 DP0       0.111500
     50 H17          1.7940     3.0870    -2.8520 ha         1 DP0       0.111500
     51 H18          5.5550    -0.6040    -0.0320 ha         1 DP0       0.122000
     52 H19          0.9160     4.9850    -1.5180 ha         1 DP0       0.111000
     53 H20          2.8860    -3.6790    -1.3520 h4         1 DP0       0.018100
     54 H21          5.2130    -2.8580    -1.0740 ha         1 DP0       0.124000
@<TRIPOS>BOND
     1     1     3 1   
     2     1    10 1   
     3     1    11 1   
     4     1    12 1   
     5     2    12 2   
     6     3     5 1   
     7     3    26 1   
     8     3    27 1   
     9     4     5 1   
    10     4     7 1   
    11     4     9 1   
    12     5    28 1   
    13     5    29 1   
    14     6    11 ar  
    15     6    24 ar  
    16     7    13 1   
    17     7    14 1   
    18     7    30 1   
    19     8    12 1   
    20     8    31 1   
    21     8    32 1   
    22     9    15 1   
    23     9    16 1   
    24     9    33 1   
    25    10    17 ar  
    26    10    18 ar  
    27    11    19 ar  
    28    13    34 1   
    29    13    35 1   
    30    13    36 1   
    31    14    37 1   
    32    14    38 1   
    33    14    39 1   
    34    15    40 1   
    35    15    41 1   
    36    15    42 1   
    37    16    43 1   
    38    16    44 1   
    39    16    45 1   
    40    17    20 ar  
    41    17    46 1   
    42    18    21 ar  
    43    18    47 1   
    44    19    22 ar  
    45    19    48 1   
    46    20    23 ar  
    47    20    49 1   
    48    21    23 ar  
    49    21    50 1   
    50    22    25 ar  
    51    22    51 1   
    52    23    52 1   
    53    24    25 ar  
    54    24    53 1   
    55    25    54 1   
@<TRIPOS>SUBSTRUCTURE
     1 DP0         1 TEMP              0 ****  ****    0 ROOT
