@<TRIPOS>MOLECULE
DP0
   54    55     1     0     0
SMALL
No Charge or Current Charge


@<TRIPOS>ATOM
      1 C1           1.0260    -0.0890     0.4900 c3         1 DP0      -0.120000
      2 O1           1.8070     0.5540     2.7270 o          1 DP0      -0.605100
      3 C2          -0.2850    -0.7460    -0.1010 c3         1 DP0      -0.068400
      4 N2          -2.8630    -0.3950    -0.4950 n3         1 DP0      -0.755600
      5 C3          -1.6230    -0.0600     0.2910 c3         1 DP0       0.184800
      6 N3           2.1770    -2.0850    -0.4590 nb         1 DP0      -0.682000
      7 C4          -3.2090    -1.8790    -0.5950 c3         1 DP0       0.200000
      8 N4           0.3500    -1.1050     2.6720 nt         1 DP0      -0.602000
      9 C5          -4.0530     0.4720    -0.0780 c3         1 DP0       0.200000
     10 C6           1.0800     1.3700    -0.0430 ca         1 DP0      -0.066300
     11 C7           2.3080    -0.8370     0.0600 ca         1 DP0       0.342300
     12 C8           1.0940    -0.1650     2.0450 c          1 DP0       0.609100
     13 C9          -2.3180    -2.6860    -1.5720 c3         1 DP0      -0.097100
     14 C10         -3.3400    -2.5800     0.7780 c3         1 DP0      -0.097100
     15 C11         -3.7350     1.9940    -0.0810 c3         1 DP0      -0.097100
     16 C12         -5.3150     0.2560    -0.9620 c3         1 DP0      -0.097100
     17 C13          0.6420     2.4750     0.7270 ca         1 DP0      -0.093000
     18 C14          1.5140     1.6130    -1.3680 ca         1 DP0      -0.093000
     19 C15          3.5790    -0.2390     0.2260 ca         1 DP0      -0.135000
     20 C16          0.6750     3.7780     0.2020 ca         1 DP0      -0.115000
     21 C17          1.5490     2.9170    -1.8910 ca         1 DP0      -0.115000
     22 C18          4.7350    -0.9350    -0.1620 ca         1 DP0      -0.076000
     23 C19          1.1340     4.0020    -1.1040 ca         1 DP0      -0.107000
     24 C20          3.2910    -2.7550    -0.8330 ca         1 DP0       0.334900
     25 C21          4.5820    -2.2190    -0.7040 ca         1 DP0      -0.160000
     26 H2          -0.2110    -0.7440    -1.1950 hc         1 DP0       0.064700
     27 H2A         -0.3290    -1.7920     0.2140 hc         1 DP0       0.064700
     28 H3          -1.8090    -0.2270     1.3600 h1         1 DP0       0.034700
     29 H3A         -1.4340     1.0100     0.1770 h1         1 DP0       0.034700
     30 H4          -4.2020    -2.0250    -1.0620 h1         1 DP0       0.030200
     31 HN4         -0.2150    -1.7460     2.1380 hn         1 DP0       0.317000
     32 HN4A         0.3970    -1.1790     3.6770 hn         1 DP0       0.317000
     33 H5          -4.3790     0.2480     0.9590 h1         1 DP0       0.030200
     34 H9          -1.4090    -3.0720    -1.1030 hc         1 DP0       0.036283
     35 H9A         -2.8710    -3.5570    -1.9420 hc         1 DP0       0.036283
     36 H9B         -2.0410    -2.0770    -2.4410 hc         1 DP0       0.036283
     37 H10         -4.0630    -2.0590     1.4170 hc         1 DP0       0.036283
     38 H10A        -3.6930    -3.6100     0.6460 hc         1 DP0       0.036283
     39 H10B        -2.3790    -2.6190     1.3030 hc         1 DP0       0.036283
     40 H11         -4.6440     2.5890     0.0650 hc         1 DP0       0.036283
     41 H11A        -3.0590     2.2650     0.7380 hc         1 DP0       0.036283
     42 H11B        -3.2790     2.2960    -1.0310 hc         1 DP0       0.036283
     43 H12         -5.7920    -0.7080    -0.7550 hc         1 DP0       0.036283
     44 H12A        -6.0770     1.0190    -0.7590 hc         1 DP0       0.036283
     45 H12B        -5.0620     0.3060    -2.0280 hc         1 DP0       0.036283
     46 H13          0.2550     2.3370     1.7330 ha         1 DP0       0.118500
     47 H14          1.8240     0.7870    -2.0050 ha         1 DP0       0.118500
     48 H15          3.6650     0.7570     0.6520 ha         1 DP0       0.147000
     49 H16          0.3380     4.6160     0.8090 ha         1 DP0       0.111500
     50 H17          1.8920     3.0840    -2.9090 ha         1 DP0       0.111500
     51 H18          5.7220    -0.4900    -0.0450 ha         1 DP0       0.122000
     52 H19          1.1580     5.0110    -1.5100 ha         1 DP0       0.111000
     53 H20          3.1430    -3.7510    -1.2480 h4         1 DP0       0.018100
     54 H21          5.4460    -2.7980    -1.0190 ha         1 DP0       0.124000
@<TRIPOS>BOND
     1     1     3 1   
     2     1    10 1   
     3     1    11 1   
     4     1    12 1   
     5     2    12 2   
     6     3     5 1   
     7     3    26 1   
     8     3    27 1   
     9     4     5 1   
    10     4     7 1   
    11     4     9 1   
    12     5    28 1   
    13     5    29 1   
    14     6    11 ar  
    15     6    24 ar  
    16     7    13 1   
    17     7    14 1   
    18     7    30 1   
    19     8    12 1   
    20     8    31 1   
    21     8    32 1   
    22     9    15 1   
    23     9    16 1   
    24     9    33 1   
    25    10    17 ar  
    26    10    18 ar  
    27    11    19 ar  
    28    13    34 1   
    29    13    35 1   
    30    13    36 1   
    31    14    37 1   
    32    14    38 1   
    33    14    39 1   
    34    15    40 1   
    35    15    41 1   
    36    15    42 1   
    37    16    43 1   
    38    16    44 1   
    39    16    45 1   
    40    17    20 ar  
    41    17    46 1   
    42    18    21 ar  
    43    18    47 1   
    44    19    22 ar  
    45    19    48 1   
    46    20    23 ar  
    47    20    49 1   
    48    21    23 ar  
    49    21    50 1   
    50    22    25 ar  
    51    22    51 1   
    52    23    52 1   
    53    24    25 ar  
    54    24    53 1   
    55    25    54 1   
@<TRIPOS>SUBSTRUCTURE
     1 DP0         1 TEMP              0 ****  ****    0 ROOT
