@<TRIPOS>MOLECULE
DP1
   44    43     1     0     0
SMALL
abcg2


@<TRIPOS>ATOM
      1 NH2         14.3530     0.4800    24.1110 n2         1 DP1      -0.798100
      2 CZ          13.3990     1.0560    23.4940 c2         1 DP1       0.824100
      3 NH1         13.5790     1.4630    22.1410 nu         1 DP1      -0.897700
      4 NO          14.2280     0.7490    21.1890 no         1 DP1       0.843500
      5 O2          14.5090     1.3700    20.1660 o          1 DP1      -0.385500
      6 O3          14.4520    -0.4340    21.3760 o          1 DP1      -0.385500
      7 NE          12.1930     1.4680    23.9770 nu         1 DP1      -0.950400
      8 CD          10.9580     1.5050    23.1870 c3         1 DP1       0.219800
      9 CG          10.4940     0.1330    22.6890 c3         1 DP1      -0.114400
     10 CB          10.3440    -0.9350    23.7720 c3         1 DP1      -0.072400
     11 CA           9.3480    -0.6010    24.8840 c3         1 DP1       0.091500
     12 N            9.3320    -1.6930    25.8670 n8         1 DP1      -0.977200
     13 C            7.9340    -0.4520    24.3170 c          1 DP1       0.588100
     14 O            7.3950    -1.3340    23.6530 o          1 DP1      -0.557100
     15 N2           7.3220     0.7170    24.6080 ns         1 DP1      -0.526900
     16 C3           5.9420     1.0010    24.2640 c3         1 DP1       0.026700
     17 C4           5.7570     1.6650    22.8940 c          1 DP1       0.593100
     18 O1           4.6310     1.7480    22.4070 o          1 DP1      -0.602100
     19 N1           6.8560     2.1450    22.2980 nt         1 DP1      -0.599000
     20 C2           5.2850     1.8550    25.3530 c3         1 DP1      -0.088400
     21 C1           5.1620     1.1180    26.6810 c3         1 DP1       0.152800
     22 N3           4.5300     1.9820    27.6850 n8         1 DP1      -1.006200
     23 HH2         14.0530     0.1960    25.0420 hn         1 DP1       0.396400
     24 HH1         13.3730     2.4070    21.8440 hn         1 DP1       0.540000
     25 HNE         12.0700     1.2880    24.9630 hn         1 DP1       0.476000
     26 HD1         10.2050     1.9610    23.8290 h1         1 DP1       0.049200
     27 HD2         11.0880     2.1750    22.3380 h1         1 DP1       0.049200
     28 HG1          9.5460     0.2750    22.1610 hc         1 DP1       0.064200
     29 HG2         11.2060    -0.2310    21.9440 hc         1 DP1       0.064200
     30 HB1         10.0320    -1.8740    23.3110 hc         1 DP1       0.067200
     31 HB2         11.3130    -1.1210    24.2440 hc         1 DP1       0.067200
     32 HA           9.6340     0.3520    25.3440 h1         1 DP1       0.003700
     33 HN1          8.7750    -1.4250    26.6730 hn         1 DP1       0.402000
     34 HN2         10.2760    -1.8370    26.2120 hn         1 DP1       0.402000
     35 HN           7.8150     1.3820    25.1850 hn         1 DP1       0.309500
     36 H2           5.4200     0.0450    24.1920 h1         1 DP1       0.106700
     37 H1'1         7.7630     2.0520    22.7220 hn         1 DP1       0.315500
     38 H1'2         6.7810     2.5990    21.4010 hn         1 DP1       0.315500
     39 HB'1         5.8610     2.7760    25.4910 hc         1 DP1       0.066700
     40 HB'2         4.2920     2.1420    25.0020 hc         1 DP1       0.066700
     41 H11          4.6150     0.1800    26.5130 h1         1 DP1       0.030700
     42 H12          6.1540     0.8470    27.0490 h1         1 DP1       0.030700
     43 HN11         4.5000     1.5040    28.5790 hn         1 DP1       0.399500
     44 HN12         3.5630     2.1530    27.4260 hn         1 DP1       0.399500
@<TRIPOS>BOND
     1     1     2 2   
     2     1    23 1   
     3     2     3 1   
     4     2     7 1   
     5     3     4 1   
     6     3    24 1   
     7     4     5 1   
     8     4     6 1   
     9     7     8 1   
    10     7    25 1   
    11     8     9 1   
    12     8    26 1   
    13     8    27 1   
    14     9    10 1   
    15     9    28 1   
    16     9    29 1   
    17    10    11 1   
    18    10    30 1   
    19    10    31 1   
    20    11    12 1   
    21    11    13 1   
    22    11    32 1   
    23    12    33 1   
    24    12    34 1   
    25    13    14 2   
    26    13    15 1   
    27    15    16 1   
    28    15    35 1   
    29    16    17 1   
    30    16    20 1   
    31    16    36 1   
    32    17    18 2   
    33    17    19 1   
    34    19    37 1   
    35    19    38 1   
    36    20    21 1   
    37    20    39 1   
    38    20    40 1   
    39    21    22 1   
    40    21    41 1   
    41    21    42 1   
    42    22    43 1   
    43    22    44 1   
@<TRIPOS>SUBSTRUCTURE
     1 DP1         1 TEMP              0 ****  ****    0 ROOT
