@<TRIPOS>MOLECULE
DP1
   44    43     1     0     0
SMALL
No Charge or Current Charge


@<TRIPOS>ATOM
      1 NH2         13.7870    -0.4410    22.8700 n2         1 DP1      -0.798100
      2 CZ          13.2750     0.6030    22.4420 c2         1 DP1       0.824100
      3 NH1         14.1020     1.6000    22.3470 nu         1 DP1      -0.897700
      4 NO          14.4150     2.2230    21.2000 no         1 DP1       0.843500
      5 O2          15.5710     1.9860    20.8690 o          1 DP1      -0.385500
      6 O3          13.4950     2.2880    20.3840 o          1 DP1      -0.385500
      7 NE          12.2570     1.0510    23.1490 nu         1 DP1      -0.950400
      8 CD          10.8670     0.8330    22.7310 c3         1 DP1       0.219800
      9 CG          10.3870    -0.6050    23.0430 c3         1 DP1      -0.114400
     10 CB          10.3720    -0.9890    24.5490 c3         1 DP1      -0.072400
     11 CA           9.4240    -0.1420    25.4420 c3         1 DP1       0.091500
     12 N            9.6070    -0.5280    26.8780 n8         1 DP1      -0.977200
     13 C            7.9370    -0.1760    24.9230 c          1 DP1       0.588100
     14 O            7.2990    -1.2120    24.7760 o          1 DP1      -0.557100
     15 N2           7.3890     1.0610    24.6350 ns         1 DP1      -0.526900
     16 C3           5.9860     1.2950    24.1980 c3         1 DP1       0.026700
     17 C4           5.9220     2.3370    23.0380 c          1 DP1       0.593100
     18 O1           5.0400     3.1710    22.9120 o          1 DP1      -0.602100
     19 N1           6.9480     2.3160    22.1550 nt         1 DP1      -0.599000
     20 C2           5.0540     1.6480    25.3900 c3         1 DP1      -0.088400
     21 C1           4.9880     0.5630    26.4850 c3         1 DP1       0.152800
     22 N3           4.0400     0.9340    27.5530 n8         1 DP1      -1.006200
     23 HH2         13.0350    -0.8630    23.4200 hn         1 DP1       0.396400
     24 HH1         14.9950     1.2620    22.6550 hn         1 DP1       0.540000
     25 HNE         12.4690     2.0050    23.4150 hn         1 DP1       0.476000
     26 HD1         10.2100     1.5500    23.2420 h1         1 DP1       0.049200
     27 HD2         10.7690     1.0190    21.6520 h1         1 DP1       0.049200
     28 HG1          9.3790    -0.7300    22.6280 hc         1 DP1       0.064200
     29 HG2         11.0180    -1.3180    22.4990 hc         1 DP1       0.064200
     30 HB1         10.0820    -2.0440    24.6330 hc         1 DP1       0.067200
     31 HB2         11.3930    -0.9210    24.9440 hc         1 DP1       0.067200
     32 HA           9.7600     0.9010    25.3760 h1         1 DP1       0.003700
     33 HN1          9.0930     0.1290    27.4780 hn         1 DP1       0.402000
     34 HN2         10.5870    -0.3790    27.1470 hn         1 DP1       0.402000
     35 HN           7.9810     1.8680    24.8070 hn         1 DP1       0.309500
     36 H2           5.6130     0.3650    23.7480 h1         1 DP1       0.106700
     37 H1'1         7.6800     1.6300    22.2550 hn         1 DP1       0.315500
     38 H1'2         6.9600     2.9790    21.3940 hn         1 DP1       0.315500
     39 HB'1         5.3860     2.5930    25.8370 hc         1 DP1       0.066700
     40 HB'2         4.0400     1.8170    25.0060 hc         1 DP1       0.066700
     41 H11          4.6670    -0.3910    26.0440 h1         1 DP1       0.030700
     42 H12          5.9800     0.4240    26.9340 h1         1 DP1       0.030700
     43 HN11         3.9870     0.1670    28.2340 hn         1 DP1       0.399500
     44 HN12         3.0910     0.9710    27.1610 hn         1 DP1       0.399500
@<TRIPOS>BOND
     1     1     2 2   
     2     1    23 1   
     3     2     3 1   
     4     2     7 1   
     5     3     4 1   
     6     3    24 1   
     7     4     5 1   
     8     4     6 1   
     9     7     8 1   
    10     7    25 1   
    11     8     9 1   
    12     8    26 1   
    13     8    27 1   
    14     9    10 1   
    15     9    28 1   
    16     9    29 1   
    17    10    11 1   
    18    10    30 1   
    19    10    31 1   
    20    11    12 1   
    21    11    13 1   
    22    11    32 1   
    23    12    33 1   
    24    12    34 1   
    25    13    14 2   
    26    13    15 1   
    27    15    16 1   
    28    15    35 1   
    29    16    17 1   
    30    16    20 1   
    31    16    36 1   
    32    17    18 2   
    33    17    19 1   
    34    19    37 1   
    35    19    38 1   
    36    20    21 1   
    37    20    39 1   
    38    20    40 1   
    39    21    22 1   
    40    21    41 1   
    41    21    42 1   
    42    22    43 1   
    43    22    44 1   
@<TRIPOS>SUBSTRUCTURE
     1 DP1         1 TEMP              0 ****  ****    0 ROOT
