@<TRIPOS>MOLECULE
DP2
   52    51     1     0     0
SMALL
abcg2


@<TRIPOS>ATOM
      1 N1           1.5710     0.1700    -6.9550 n3         1 DP2       0.038600
      2 O2           2.8910    -0.0990    -6.5850 oh         1 DP2      -0.484800
      3 O3           1.3280    -0.5770    -8.1000 oh         1 DP2      -0.484800
      4 N           -0.8970    -0.4040     1.3420 ns         1 DP2      -0.516900
      5 CA          -2.1560    -0.2940     0.6450 c3         1 DP2       0.026700
      6 C           -3.2720     0.3160     1.4960 c          1 DP2       0.599100
      7 N2          -2.8820     1.1170     2.4930 nt         1 DP2      -0.599000
      8 O           -4.4410     0.0960     1.2180 o          1 DP2      -0.598100
      9 CB          -1.9770     0.5280    -0.6330 c3         1 DP2      -0.085400
     10 CG          -1.1290    -0.1880    -1.6760 c3         1 DP2      -0.091400
     11 CD          -0.9270     0.6720    -2.9140 c3         1 DP2       0.219800
     12 NE          -0.1970    -0.0640    -3.9210 nu         1 DP2      -0.902400
     13 CZ           0.3290     0.5760    -5.0070 c2         1 DP2       0.812100
     14 NH1          0.7550    -0.3340    -5.9770 nu         1 DP2      -0.727200
     15 NH2          0.3850     1.8470    -5.0830 n2         1 DP2      -0.871100
     16 N3           1.2480    -2.5640     3.2700 n8         1 DP2      -0.985200
     17 C1           0.6920    -1.2620     2.9750 c3         1 DP2       0.093500
     18 O1          -1.5260    -2.1400     2.6310 o          1 DP2      -0.588100
     19 C3           0.5390    -0.4380     4.2580 c3         1 DP2      -0.064400
     20 C4           1.8670    -0.1040     4.9250 c3         1 DP2      -0.072400
     21 C5           1.6850     0.7220     6.1920 c3         1 DP2      -0.079400
     22 CE           3.0070     1.1010     6.8410 c3         1 DP2       0.149800
     23 NZ           2.7900     1.8810     8.0520 n8         1 DP2      -0.995200
     24 HO2          3.3770     0.6970    -6.8350 ho         1 DP2       0.470500
     25 HO3          1.2430     0.0830    -8.7980 ho         1 DP2       0.470500
     26 HN          -0.1460     0.2170     1.0820 hn         1 DP2       0.318500
     27 HA          -2.5020    -1.2940     0.3700 h1         1 DP2       0.099700
     28 HN21        -3.5630     1.5790     3.0730 hn         1 DP2       0.315000
     29 HN22        -1.9120     1.2850     2.6900 hn         1 DP2       0.315000
     30 HB1         -2.9640     0.7340    -1.0530 hc         1 DP2       0.060700
     31 HB2         -1.5360     1.4990    -0.3820 hc         1 DP2       0.060700
     32 HG1         -0.1510    -0.4570    -1.2680 hc         1 DP2       0.047700
     33 HG2         -1.6240    -1.1250    -1.9480 hc         1 DP2       0.047700
     34 HD1         -1.8970     1.0190    -3.2920 h1         1 DP2       0.054700
     35 HD2         -0.3560     1.5640    -2.6540 h1         1 DP2       0.054700
     36 HNE         -0.5440    -0.9970    -4.0900 hn         1 DP2       0.472000
     37 HH1          1.0160    -1.2560    -5.6370 hn         1 DP2       0.480000
     38 HH2          0.8640     2.1330    -5.9280 hn         1 DP2       0.397400
     39 HN'2         1.4190    -3.0740     2.4120 hn         1 DP2       0.411000
     40 H1           1.3920    -0.7360     2.3170 h1         1 DP2       0.060700
     41 HB'1        -0.1050    -0.9830     4.9560 hc         1 DP2       0.044700
     42 HB'2         0.0160     0.4950     4.0230 hc         1 DP2       0.044700
     43 HG'1         2.4950     0.4470     4.2160 hc         1 DP2       0.048200
     44 HG'2         2.4010    -1.0280     5.1590 hc         1 DP2       0.048200
     45 HD'1         1.0770     0.1670     6.9130 hc         1 DP2       0.044700
     46 HD'2         1.1270     1.6350     5.9530 hc         1 DP2       0.044700
     47 HE'1         3.5450     0.1890     7.1170 h1         1 DP2       0.027700
     48 HE'2         3.6340     1.6130     6.0960 h1         1 DP2       0.027700
     49 HZ'1         3.6830     2.1030     8.4750 hn         1 DP2       0.391500
     50 HZ'2         2.3800     2.7730     7.8030 hn         1 DP2       0.391500
     51 C2          -0.6750    -1.3300     2.2960 c          1 DP2       0.548100
     52 HN'1         0.5720    -3.1080     3.7920 hn         1 DP2       0.411000
@<TRIPOS>BOND
     1     1     2 1   
     2     1     3 1   
     3     1    14 1   
     4     2    24 1   
     5     3    25 1   
     6     4     5 1   
     7     4    26 1   
     8     4    51 1   
     9     5     6 1   
    10     5     9 1   
    11     5    27 1   
    12     6     7 1   
    13     6     8 2   
    14     7    28 1   
    15     7    29 1   
    16     9    10 1   
    17     9    30 1   
    18     9    31 1   
    19    10    11 1   
    20    10    32 1   
    21    10    33 1   
    22    11    12 1   
    23    11    34 1   
    24    11    35 1   
    25    12    13 1   
    26    12    36 1   
    27    13    14 1   
    28    13    15 2   
    29    14    37 1   
    30    15    38 1   
    31    16    17 1   
    32    16    39 1   
    33    16    52 1   
    34    17    19 1   
    35    17    40 1   
    36    17    51 1   
    37    18    51 2   
    38    19    20 1   
    39    19    41 1   
    40    19    42 1   
    41    20    21 1   
    42    20    43 1   
    43    20    44 1   
    44    21    22 1   
    45    21    45 1   
    46    21    46 1   
    47    22    23 1   
    48    22    47 1   
    49    22    48 1   
    50    23    49 1   
    51    23    50 1   
@<TRIPOS>SUBSTRUCTURE
     1 DP2         1 TEMP              0 ****  ****    0 ROOT
