@<TRIPOS>MOLECULE
DP2
   52    51     1     0     0
SMALL
No Charge or Current Charge


@<TRIPOS>ATOM
      1 N1           1.8370    -1.0810    -6.6360 n3         1 DP2       0.038600
      2 O2           2.9070    -0.4020    -7.2680 oh         1 DP2      -0.484800
      3 O3           1.5500    -2.2360    -7.3990 oh         1 DP2      -0.484800
      4 N           -1.1940     0.6860     1.4690 ns         1 DP2      -0.516900
      5 CA          -2.4440     0.5410     0.6760 c3         1 DP2       0.026700
      6 C           -3.6390     1.2760     1.3630 c          1 DP2       0.599100
      7 N2          -3.6270     1.3090     2.7170 nt         1 DP2      -0.599000
      8 O           -4.5350     1.8410     0.7570 o          1 DP2      -0.598100
      9 CB          -2.2440     0.9520    -0.8090 c3         1 DP2      -0.085400
     10 CG          -1.1510     0.1500    -1.5560 c3         1 DP2      -0.091400
     11 CD          -1.0370     0.5370    -3.0450 c3         1 DP2       0.219800
     12 NE           0.0170    -0.2490    -3.7020 nu         1 DP2      -0.902400
     13 CZ           0.3570    -0.1130    -4.9980 c2         1 DP2       0.812100
     14 NH1          1.4240    -0.8720    -5.3380 nu         1 DP2      -0.727200
     15 NH2         -0.2300     0.6710    -5.7880 n2         1 DP2      -0.871100
     16 N3           2.2520    -0.3680     1.9280 n8         1 DP2      -0.985200
     17 C1           0.9660     0.0770     2.5650 c3         1 DP2       0.093500
     18 O1          -0.5570    -1.5050     1.4580 o          1 DP2      -0.588100
     19 C3           0.8920    -0.4000     4.0400 c3         1 DP2      -0.064400
     20 C4           1.9750     0.2090     4.9650 c3         1 DP2      -0.072400
     21 C5           1.8370    -0.2420     6.4370 c3         1 DP2      -0.079400
     22 CE           2.9190     0.3650     7.3530 c3         1 DP2       0.149800
     23 NZ           2.7620    -0.0850     8.7490 n8         1 DP2      -0.995200
     24 HO2          2.4570     0.2990    -7.7870 ho         1 DP2       0.470500
     25 HO3          0.7630    -1.9660    -7.9200 ho         1 DP2       0.470500
     26 HN          -0.9160     1.6180     1.7600 hn         1 DP2       0.318500
     27 HA          -2.7340    -0.5180     0.6910 h1         1 DP2       0.099700
     28 HN21        -4.3700     1.7850     3.2070 hn         1 DP2       0.315000
     29 HN22        -2.8840     0.8510     3.2220 hn         1 DP2       0.315000
     30 HB1         -3.1940     0.8220    -1.3420 hc         1 DP2       0.060700
     31 HB2         -2.0020     2.0220    -0.8550 hc         1 DP2       0.060700
     32 HG1         -0.1800     0.3160    -1.0730 hc         1 DP2       0.047700
     33 HG2         -1.3750    -0.9210    -1.4770 hc         1 DP2       0.047700
     34 HD1         -2.0030     0.3630    -3.5390 h1         1 DP2       0.054700
     35 HD2         -0.8080     1.6100    -3.1200 h1         1 DP2       0.054700
     36 HNE          0.1860    -1.1750    -3.3290 hn         1 DP2       0.472000
     37 HH1          1.9630    -1.2550    -4.5710 hn         1 DP2       0.480000
     38 HH2          0.2590     0.5690    -6.6800 hn         1 DP2       0.397400
     39 HN'2         2.2960    -0.0130     0.9650 hn         1 DP2       0.411000
     40 H1           0.9770     1.1760     2.5780 h1         1 DP2       0.060700
     41 HB'1         0.9550    -1.4950     4.0730 hc         1 DP2       0.044700
     42 HB'2        -0.0940    -0.1330     4.4410 hc         1 DP2       0.044700
     43 HG'1         1.9160     1.3030     4.9170 hc         1 DP2       0.048200
     44 HG'2         2.9700    -0.0730     4.6000 hc         1 DP2       0.048200
     45 HD'1         1.8970    -1.3370     6.4840 hc         1 DP2       0.044700
     46 HD'2         0.8450     0.0440     6.8090 hc         1 DP2       0.044700
     47 HE'1         3.9150     0.0660     6.9980 h1         1 DP2       0.027700
     48 HE'2         2.8550     1.4620     7.3270 h1         1 DP2       0.027700
     49 HZ'1         3.4610     0.3900     9.3340 hn         1 DP2       0.391500
     50 HZ'2         1.8670     0.2640     9.1130 hn         1 DP2       0.391500
     51 C2          -0.3320    -0.3470     1.7880 c          1 DP2       0.548100
     52 HN'1         2.2170    -1.3860     1.7970 hn         1 DP2       0.411000
@<TRIPOS>BOND
     1     1     2 1   
     2     1     3 1   
     3     1    14 1   
     4     2    24 1   
     5     3    25 1   
     6     4     5 1   
     7     4    26 1   
     8     4    51 1   
     9     5     6 1   
    10     5     9 1   
    11     5    27 1   
    12     6     7 1   
    13     6     8 2   
    14     7    28 1   
    15     7    29 1   
    16     9    10 1   
    17     9    30 1   
    18     9    31 1   
    19    10    11 1   
    20    10    32 1   
    21    10    33 1   
    22    11    12 1   
    23    11    34 1   
    24    11    35 1   
    25    12    13 1   
    26    12    36 1   
    27    13    14 1   
    28    13    15 2   
    29    14    37 1   
    30    15    38 1   
    31    16    17 1   
    32    16    39 1   
    33    16    52 1   
    34    17    19 1   
    35    17    40 1   
    36    17    51 1   
    37    18    51 2   
    38    19    20 1   
    39    19    41 1   
    40    19    42 1   
    41    20    21 1   
    42    20    43 1   
    43    20    44 1   
    44    21    22 1   
    45    21    45 1   
    46    21    46 1   
    47    22    23 1   
    48    22    47 1   
    49    22    48 1   
    50    23    49 1   
    51    23    50 1   
@<TRIPOS>SUBSTRUCTURE
     1 DP2         1 TEMP              0 ****  ****    0 ROOT
