@<TRIPOS>MOLECULE
DP3
   38    37     1     0     0
SMALL
bcc


@<TRIPOS>ATOM
      1 H2          -8.5280     0.4400     0.0150 n8         1 DP3      -0.318000
      2 H2          -7.3140    -0.3330     0.2330 c3         1 DP3      -0.092000
      3 H1          -6.0840     0.5320     0.0110 c3         1 DP3      -0.080000
      4 H1          -4.8690    -0.2250     0.2370 n7         1 DP3      -0.300000
      5 H           -3.6580     0.5300    -0.0190 c3         1 DP3      -0.117000
      6 HA          -2.4200    -0.3540     0.1360 c3         1 DP3      -0.043000
      7 H           -2.4470    -1.5380    -0.7130 n8         1 DP3      -0.306000
      8 HB          -1.1530     0.4550    -0.1200 c3         1 DP3      -0.146000
      9 HG           0.1330    -0.3140     0.1530 c3         1 DP3      -0.167000
     10 HD           1.3620     0.5220    -0.1650 c3         1 DP3      -0.011000
     11 HE           2.5670    -0.2130     0.1560 n7         1 DP3      -0.345000
     12 HZ           3.7830     0.3670     0.0010 c2         1 DP3       0.247000
     13 HH2          3.9350     1.5530    -0.4160 n2         1 DP3      -0.297000
     14 HH1          4.7880    -0.5190     0.4700 n7         1 DP3      -0.413000
     15 HO           6.0490    -0.5930     0.0240 n3         1 DP3       0.658000
     16 H2           6.7410    -1.4410     0.5390 o          1 DP3      -0.363500
     17 H3           6.4080     0.1680    -0.8430 o          1 DP3      -0.363500
     18 H2'1        -8.6000     0.6790    -0.9660 ha         1 DP3       0.134500
     19 H2'2        -9.3330    -0.1410     0.2090 ha         1 DP3       0.134500
     20 H11         -7.3180    -0.6890     1.2680 ha         1 DP3       0.074000
     21 H12         -7.2330    -1.2250    -0.4030 ha         1 DP3       0.074000
     22 H1'1        -6.0770     0.8880    -1.0250 ha         1 DP3       0.078000
     23 H1'2        -6.1560     1.4290     0.6470 ha         1 DP3       0.078000
     24 H1          -4.8570    -0.5370     1.2020 ha         1 DP3       0.149000
     25 H3          -3.6990     0.9060    -1.0480 ha         1 DP3       0.074500
     26 H2          -3.5660     1.4150     0.6320 ha         1 DP3       0.074500
     27 HA          -2.3920    -0.7010     1.1780 ha         1 DP3       0.098000
     28 HN1         -3.3620    -1.9660    -0.6190 ha         1 DP3       0.138500
     29 HN2         -2.3940    -1.2420    -1.6820 ha         1 DP3       0.138500
     30 HB1         -1.1610     0.8070    -1.1590 ha         1 DP3       0.081000
     31 HB2         -1.1760     1.3510     0.5060 ha         1 DP3       0.081000
     32 HG1          0.1610    -0.6190     1.2030 ha         1 DP3       0.094500
     33 HG2          0.1470    -1.2290    -0.4440 ha         1 DP3       0.094500
     34 HD1          1.3500     0.8190    -1.2200 ha         1 DP3       0.092500
     35 HD2          1.3550     1.4440     0.4200 ha         1 DP3       0.092500
     36 HNE          2.5190    -1.2150     0.0430 ha         1 DP3       0.223000
     37 HH2          4.8900     1.8760    -0.3590 ha         1 DP3       0.183000
     38 HH1          4.5640    -1.2330     1.1510 ha         1 DP3       0.273000
@<TRIPOS>BOND
     1     1     2 1   
     2     1    18 1   
     3     1    19 1   
     4     2     3 1   
     5     2    20 1   
     6     2    21 1   
     7     3     4 1   
     8     3    22 1   
     9     3    23 1   
    10     4     5 1   
    11     4    24 1   
    12     5     6 1   
    13     5    25 1   
    14     5    26 1   
    15     6     7 1   
    16     6     8 1   
    17     6    27 1   
    18     7    28 1   
    19     7    29 1   
    20     8     9 1   
    21     8    30 1   
    22     8    31 1   
    23     9    10 1   
    24     9    32 1   
    25     9    33 1   
    26    10    11 1   
    27    10    34 1   
    28    10    35 1   
    29    11    12 1   
    30    11    36 1   
    31    12    13 2   
    32    12    14 1   
    33    13    37 1   
    34    14    15 1   
    35    14    38 1   
    36    15    16 1   
    37    15    17 1   
@<TRIPOS>SUBSTRUCTURE
     1 DP3         1 TEMP              0 ****  ****    0 ROOT
