@<TRIPOS>MOLECULE
DP3
   38    37     1     0     0
SMALL
No Charge or Current Charge


@<TRIPOS>ATOM
      1 N2          -8.6200     0.1840     0.2480 n8         1 DP3      -0.996200
      2 C2          -7.3070    -0.5070     0.2940 c3         1 DP3       0.144800
      3 C1          -6.0980     0.4620     0.1540 c3         1 DP3       0.156800
      4 N1          -4.8110    -0.2680     0.2040 n7         1 DP3      -0.876400
      5 C           -3.6000     0.5800     0.0520 c3         1 DP3       0.119800
      6 CA          -2.2970    -0.2770     0.0680 c3         1 DP3       0.154500
      7 N           -2.4470    -1.4170    -0.8610 n8         1 DP3      -0.984200
      8 CB          -1.0340     0.5640    -0.2510 c3         1 DP3      -0.067400
      9 CG           0.3020    -0.2050    -0.0950 c3         1 DP3      -0.088400
     10 CD           1.5350     0.6780    -0.3690 c3         1 DP3       0.225800
     11 NE           2.7730    -0.0970    -0.1810 nu         1 DP3      -0.915400
     12 CZ           3.9980     0.4170    -0.3270 c2         1 DP3       0.839100
     13 NH2          4.1680     1.6160    -0.6200 n2         1 DP3      -0.829100
     14 NH1          4.6660    -0.0250     0.6920 nu         1 DP3      -0.943700
     15 NO           5.6440    -0.9380     0.6380 no         1 DP3       0.856500
     16 O2           5.2880    -1.9930     1.1470 o          1 DP3      -0.403500
     17 O3           6.3200    -0.8970    -0.3900 o          1 DP3      -0.403500
     18 H2'1        -8.7430     0.6060    -0.6810 hn         1 DP3       0.394500
     19 H2'2        -9.3690    -0.5190     0.2910 hn         1 DP3       0.394500
     20 H11         -7.2320    -1.0440     1.2500 h1         1 DP3       0.034700
     21 H12         -7.2750    -1.2480    -0.5170 h1         1 DP3       0.034700
     22 H1'1        -6.1880     1.0030    -0.7990 h1         1 DP3       0.038700
     23 H1'2        -6.1440     1.2050     0.9620 h1         1 DP3       0.038700
     24 H1          -4.7530    -0.7480     1.1120 hn         1 DP3       0.409000
     25 H3          -3.6480     1.1310    -0.8980 h1         1 DP3       0.035200
     26 H2          -3.5460     1.3240     0.8590 h1         1 DP3       0.035200
     27 HA          -2.1940    -0.6880     1.0830 h1         1 DP3       0.058700
     28 HN1         -3.4490    -1.6510    -0.8220 hn         1 DP3       0.398500
     29 HN2         -2.3440    -1.0670    -1.8190 hn         1 DP3       0.398500
     30 HB1         -1.1080     0.9610    -1.2710 hc         1 DP3       0.041700
     31 HB2         -1.0170     1.4310     0.4210 hc         1 DP3       0.041700
     32 HG1          0.3680    -0.6060     0.9240 hc         1 DP3       0.055200
     33 HG2          0.3160    -1.0600    -0.7810 hc         1 DP3       0.055200
     34 HD1          1.4820     1.0660    -1.3970 h1         1 DP3       0.053200
     35 HD2          1.5200     1.5370     0.3170 h1         1 DP3       0.053200
     36 HNE          2.7270    -1.0550    -0.5150 hn         1 DP3       0.483000
     37 HH2          5.0750     1.8430    -0.2010 hn         1 DP3       0.427400
     38 HH1          3.9990    -0.4440     1.3110 hn         1 DP3       0.533000
@<TRIPOS>BOND
     1     1     2 1   
     2     1    18 1   
     3     1    19 1   
     4     2     3 1   
     5     2    20 1   
     6     2    21 1   
     7     3     4 1   
     8     3    22 1   
     9     3    23 1   
    10     4     5 1   
    11     4    24 1   
    12     5     6 1   
    13     5    25 1   
    14     5    26 1   
    15     6     7 1   
    16     6     8 1   
    17     6    27 1   
    18     7    28 1   
    19     7    29 1   
    20     8     9 1   
    21     8    30 1   
    22     8    31 1   
    23     9    10 1   
    24     9    32 1   
    25     9    33 1   
    26    10    11 1   
    27    10    34 1   
    28    10    35 1   
    29    11    12 1   
    30    11    36 1   
    31    12    13 2   
    32    12    14 1   
    33    13    37 1   
    34    14    15 1   
    35    14    38 1   
    36    15    16 1   
    37    15    17 1   
@<TRIPOS>SUBSTRUCTURE
     1 DP3         1 TEMP              0 ****  ****    0 ROOT
