@<TRIPOS>MOLECULE
DP3
   38    37     1     0     0
SMALL
abcg2


@<TRIPOS>ATOM
      1 N2          -8.5280     0.4400     0.0150 n8         1 DP3      -0.996200
      2 C2          -7.3140    -0.3330     0.2330 c3         1 DP3       0.144800
      3 C1          -6.0840     0.5320     0.0110 c3         1 DP3       0.156800
      4 N1          -4.8690    -0.2250     0.2370 n7         1 DP3      -0.876400
      5 C           -3.6580     0.5300    -0.0190 c3         1 DP3       0.119800
      6 CA          -2.4200    -0.3540     0.1360 c3         1 DP3       0.154500
      7 N           -2.4470    -1.5380    -0.7130 n8         1 DP3      -0.984200
      8 CB          -1.1530     0.4550    -0.1200 c3         1 DP3      -0.067400
      9 CG           0.1330    -0.3140     0.1530 c3         1 DP3      -0.088400
     10 CD           1.3620     0.5220    -0.1650 c3         1 DP3       0.225800
     11 NE           2.5670    -0.2130     0.1560 nu         1 DP3      -0.915400
     12 CZ           3.7830     0.3670     0.0010 c2         1 DP3       0.839100
     13 NH2          3.9350     1.5530    -0.4160 n2         1 DP3      -0.829100
     14 NH1          4.7880    -0.5190     0.4700 nu         1 DP3      -0.943700
     15 NO           6.0490    -0.5930     0.0240 no         1 DP3       0.856500
     16 O2           6.7410    -1.4410     0.5390 o          1 DP3      -0.403500
     17 O3           6.4080     0.1680    -0.8430 o          1 DP3      -0.403500
     18 H2'1        -8.6000     0.6790    -0.9660 hn         1 DP3       0.394500
     19 H2'2        -9.3330    -0.1410     0.2090 hn         1 DP3       0.394500
     20 H11         -7.3180    -0.6890     1.2680 h1         1 DP3       0.034700
     21 H12         -7.2330    -1.2250    -0.4030 h1         1 DP3       0.034700
     22 H1'1        -6.0770     0.8880    -1.0250 h1         1 DP3       0.038700
     23 H1'2        -6.1560     1.4290     0.6470 h1         1 DP3       0.038700
     24 H1          -4.8570    -0.5370     1.2020 hn         1 DP3       0.409000
     25 H3          -3.6990     0.9060    -1.0480 h1         1 DP3       0.035200
     26 H2          -3.5660     1.4150     0.6320 h1         1 DP3       0.035200
     27 HA          -2.3920    -0.7010     1.1780 h1         1 DP3       0.058700
     28 HN1         -3.3620    -1.9660    -0.6190 hn         1 DP3       0.398500
     29 HN2         -2.3940    -1.2420    -1.6820 hn         1 DP3       0.398500
     30 HB1         -1.1610     0.8070    -1.1590 hc         1 DP3       0.041700
     31 HB2         -1.1760     1.3510     0.5060 hc         1 DP3       0.041700
     32 HG1          0.1610    -0.6190     1.2030 hc         1 DP3       0.055200
     33 HG2          0.1470    -1.2290    -0.4440 hc         1 DP3       0.055200
     34 HD1          1.3500     0.8190    -1.2200 h1         1 DP3       0.053200
     35 HD2          1.3550     1.4440     0.4200 h1         1 DP3       0.053200
     36 HNE          2.5190    -1.2150     0.0430 hn         1 DP3       0.483000
     37 HH2          4.8900     1.8760    -0.3590 hn         1 DP3       0.427400
     38 HH1          4.5640    -1.2330     1.1510 hn         1 DP3       0.533000
@<TRIPOS>BOND
     1     1     2 1   
     2     1    18 1   
     3     1    19 1   
     4     2     3 1   
     5     2    20 1   
     6     2    21 1   
     7     3     4 1   
     8     3    22 1   
     9     3    23 1   
    10     4     5 1   
    11     4    24 1   
    12     5     6 1   
    13     5    25 1   
    14     5    26 1   
    15     6     7 1   
    16     6     8 1   
    17     6    27 1   
    18     7    28 1   
    19     7    29 1   
    20     8     9 1   
    21     8    30 1   
    22     8    31 1   
    23     9    10 1   
    24     9    32 1   
    25     9    33 1   
    26    10    11 1   
    27    10    34 1   
    28    10    35 1   
    29    11    12 1   
    30    11    36 1   
    31    12    13 2   
    32    12    14 1   
    33    13    37 1   
    34    14    15 1   
    35    14    38 1   
    36    15    16 1   
    37    15    17 1   
@<TRIPOS>SUBSTRUCTURE
     1 DP3         1 TEMP              0 ****  ****    0 ROOT
