@<TRIPOS>MOLECULE
DP4
   40    41     1     0     0
SMALL
No Charge or Current Charge


@<TRIPOS>ATOM
      1 C1          -4.4040     1.7190     0.0530 ca         1 DP4      -0.116000
      2 C2          -4.3560     0.6430     0.9540 ca         1 DP4      -0.140000
      3 C3          -3.2770    -0.2570     0.9250 ca         1 DP4      -0.090500
      4 C4          -2.2310    -0.0870    -0.0100 ca         1 DP4      -0.413000
      5 C5          -2.2900     0.9960    -0.9170 ca         1 DP4      -0.090500
      6 C6          -3.3710     1.8930    -0.8820 ca         1 DP4      -0.140000
      7 C7          -0.7280    -2.2070     1.4650 c3         1 DP4      -0.574500
      8 C8          -1.1280    -2.4220    -1.3940 c3         1 DP4      -0.574500
      9 SI          -0.8030    -1.2660    -0.0620 s6         1 DP4       1.246000
     10 C9           0.7590    -0.3430    -0.3880 c6         1 DP4      -0.447000
     11 C10          2.0030    -1.2760    -0.5180 c6         1 DP4      -0.131500
     12 C11          3.2630    -0.4440    -0.8590 c6         1 DP4      -0.111500
     13 C12          2.3070     1.5590     0.3140 c6         1 DP4      -0.111500
     14 C13          1.0290     0.7650     0.6770 c6         1 DP4      -0.131500
     15 N1           3.5670     0.6870     0.1430 n4         1 DP4       0.267000
     16 O1           3.9530     0.1570     1.3630 o          1 DP4      -0.667000
     17 C14          4.6990     1.5370    -0.3850 c3         1 DP4      -0.175000
     18 HC1         -5.2410     2.4150     0.0770 ha         1 DP4       0.128000
     19 HC2         -5.1570     0.5060     1.6780 ha         1 DP4       0.129000
     20 HC3         -3.2650    -1.0840     1.6340 ha         1 DP4       0.122000
     21 HC5         -1.5010     1.1480    -1.6530 ha         1 DP4       0.122000
     22 HC6         -3.4080     2.7250    -1.5830 ha         1 DP4       0.129000
     23 HC71        -1.6300    -2.8260     1.5220 h1         1 DP4       0.098000
     24 HC72         0.1730    -2.8270     1.4300 h1         1 DP4       0.098000
     25 HC73        -0.6830    -1.4910     2.2930 h1         1 DP4       0.098000
     26 HC81        -1.1180    -1.8550    -2.3320 h1         1 DP4       0.098000
     27 HC82        -0.3390    -3.1810    -1.3790 h1         1 DP4       0.098000
     28 HC83        -2.1110    -2.8670    -1.2110 h1         1 DP4       0.098000
     29 HC9          0.5820     0.1360    -1.3600 h1         1 DP4       0.093000
     30 H101         2.1770    -1.8250     0.4200 hc         1 DP4       0.101250
     31 H102         1.8490    -2.0340    -1.3000 hc         1 DP4       0.101250
     32 H111         4.1600    -1.0670    -0.8970 hx         1 DP4       0.095750
     33 H112         3.1460     0.0480    -1.8280 hx         1 DP4       0.095750
     34 H121         2.1780     2.0760    -0.6390 hx         1 DP4       0.095750
     35 H122         2.5510     2.3020     1.0770 hx         1 DP4       0.095750
     36 H131         0.1780     1.4600     0.7480 hc         1 DP4       0.101250
     37 H132         1.1500     0.3200     1.6760 hc         1 DP4       0.101250
     38 H141         4.4010     1.9580    -1.3450 hx         1 DP4       0.100333
     39 H142         4.8980     2.3330     0.3330 hx         1 DP4       0.100333
     40 H143         5.5800     0.9060    -0.5030 hx         1 DP4       0.100333
@<TRIPOS>BOND
     1     1     2 ar  
     2     1     6 ar  
     3     1    18 1   
     4     2     3 ar  
     5     2    19 1   
     6     3     4 ar  
     7     3    20 1   
     8     4     5 ar  
     9     4     9 1   
    10     5     6 ar  
    11     5    21 1   
    12     6    22 1   
    13     7     9 1   
    14     7    23 1   
    15     7    24 1   
    16     7    25 1   
    17     8     9 1   
    18     8    26 1   
    19     8    27 1   
    20     8    28 1   
    21     9    10 1   
    22    10    11 1   
    23    10    14 1   
    24    10    29 1   
    25    11    12 1   
    26    11    30 1   
    27    11    31 1   
    28    12    15 1   
    29    12    32 1   
    30    12    33 1   
    31    13    14 1   
    32    13    15 1   
    33    13    34 1   
    34    13    35 1   
    35    14    36 1   
    36    14    37 1   
    37    15    16 1   
    38    15    17 1   
    39    17    38 1   
    40    17    39 1   
    41    17    40 1   
@<TRIPOS>SUBSTRUCTURE
     1 DP4         1 TEMP              0 ****  ****    0 ROOT
