@<TRIPOS>MOLECULE
DP4
   40    41     1     0     0
SMALL
bcc


@<TRIPOS>ATOM
      1 C1          -4.3740     1.7550     0.1310 ca         1 DP4      -0.116000
      2 C2          -3.9380     1.0770     1.2610 ca         1 DP4      -0.140000
      3 C3          -2.8890     0.1710     1.1650 ca         1 DP4      -0.090500
      4 C4          -2.2550    -0.0830    -0.0530 ca         1 DP4      -0.413000
      5 C5          -2.7110     0.6120    -1.1790 ca         1 DP4      -0.090500
      6 C6          -3.7570     1.5210    -1.0920 ca         1 DP4      -0.140000
      7 C7          -0.6660    -2.2840     1.3950 c3         1 DP4      -0.574500
      8 C8          -1.1000    -2.4340    -1.6590 c3         1 DP4      -0.574500
      9 SI          -0.8110    -1.2860    -0.1940 s6         1 DP4       1.246000
     10 C9           0.7680    -0.2800    -0.4960 c6         1 DP4      -0.447000
     11 C10          2.0100    -1.1690    -0.6110 c6         1 DP4      -0.131500
     12 C11          3.2660    -0.3510    -0.8280 c6         1 DP4      -0.111500
     13 C12          2.2790     1.5560     0.3290 c6         1 DP4      -0.111500
     14 C13          0.9980     0.7850     0.5770 c6         1 DP4      -0.131500
     15 N1           3.4630     0.6410     0.2790 n4         1 DP4       0.267000
     16 O1           3.6140     0.0020     1.4600 o          1 DP4      -0.667000
     17 C14          4.6730     1.4440    -0.0110 c3         1 DP4      -0.175000
     18 HC1         -5.1920     2.4610     0.2000 ha         1 DP4       0.128000
     19 HC2         -4.4150     1.2520     2.2170 ha         1 DP4       0.129000
     20 HC3         -2.5660    -0.3460     2.0620 ha         1 DP4       0.122000
     21 HC5         -2.2480     0.4430    -2.1450 ha         1 DP4       0.122000
     22 HC6         -4.0910     2.0470    -1.9770 ha         1 DP4       0.129000
     23 HC71        -1.5670    -2.8770     1.5650 h1         1 DP4       0.098000
     24 HC72         0.1750    -2.9770     1.3400 h1         1 DP4       0.098000
     25 HC73        -0.5160    -1.6540     2.2730 h1         1 DP4       0.098000
     26 HC81        -1.1510    -1.8820    -2.5990 h1         1 DP4       0.098000
     27 HC82        -0.2970    -3.1670    -1.7530 h1         1 DP4       0.098000
     28 HC83        -2.0350    -2.9850    -1.5480 h1         1 DP4       0.098000
     29 HC9          0.6330     0.2360    -1.4580 h1         1 DP4       0.093000
     30 H101         2.1340    -1.7770     0.2870 hc         1 DP4       0.101250
     31 H102         1.9190    -1.8610    -1.4510 hc         1 DP4       0.101250
     32 H111         4.1570    -0.9780    -0.8410 hx         1 DP4       0.095750
     33 H112         3.2130     0.1910    -1.7750 hx         1 DP4       0.095750
     34 H121         2.2220     2.1030    -0.6160 hx         1 DP4       0.095750
     35 H122         2.4760     2.2720     1.1270 hx         1 DP4       0.095750
     36 H131         0.1810     1.5080     0.5970 hc         1 DP4       0.101250
     37 H132         1.0430     0.3340     1.5710 hc         1 DP4       0.101250
     38 H141         4.5880     1.9640    -0.9650 hx         1 DP4       0.100333
     39 H142         4.8010     2.1700     0.7890 hx         1 DP4       0.100333
     40 H143         5.5300     0.7750    -0.0360 hx         1 DP4       0.100333
@<TRIPOS>BOND
     1     1     2 1   
     2     1     6 1   
     3     1    18 1   
     4     2     3 1   
     5     2    19 1   
     6     3     4 1   
     7     3    20 1   
     8     4     5 1   
     9     4     9 1   
    10     5     6 1   
    11     5    21 1   
    12     6    22 1   
    13     7     9 1   
    14     7    23 1   
    15     7    24 1   
    16     7    25 1   
    17     8     9 1   
    18     8    26 1   
    19     8    27 1   
    20     8    28 1   
    21     9    10 1   
    22    10    11 1   
    23    10    14 1   
    24    10    29 1   
    25    11    12 1   
    26    11    30 1   
    27    11    31 1   
    28    12    15 1   
    29    12    32 1   
    30    12    33 1   
    31    13    14 1   
    32    13    15 1   
    33    13    34 1   
    34    13    35 1   
    35    14    36 1   
    36    14    37 1   
    37    15    16 1   
    38    15    17 1   
    39    17    38 1   
    40    17    39 1   
    41    17    40 1   
@<TRIPOS>SUBSTRUCTURE
     1 DP4         1 TEMP              0 ****  ****    0 ROOT
