@<TRIPOS>MOLECULE
DP5
   66    68     1     0     0
SMALL
No Charge or Current Charge


@<TRIPOS>ATOM
      1 C1A         -0.9570     0.5810    -3.9040 c6         1 DP5       0.267300
      2 C2A         -1.4760     1.1900    -5.2430 c6         1 DP5       0.118300
      3 C3A         -1.4790     0.0830    -6.3360 c6         1 DP5       0.179300
      4 C4A         -0.0750    -0.5780    -6.4550 c6         1 DP5       0.060300
      5 C5A          0.3980    -1.0710    -5.0550 c6         1 DP5       0.172300
      6 C6A          1.8530    -1.6430    -5.0660 c3         1 DP5       0.166600
      7 O2A         -2.7970     1.7650    -5.1070 oh         1 DP5      -0.721000
      8 O3A         -1.8960     0.6430    -7.5910 oh         1 DP5      -0.662000
      9 S4A         -0.1570    -2.0020    -7.6820 sh         1 DP5      -0.444800
     10 O5A          0.3560     0.0280    -4.1080 os         1 DP5      -0.434000
     11 O6A          2.3100    -2.0360    -3.7570 oh         1 DP5      -0.711000
     12 C1B          1.3550     0.5120     1.3520 c6         1 DP5       0.259300
     13 C2B          2.2030     0.3890     0.0480 c6         1 DP5       0.163300
     14 C3B          1.5180     1.2130    -1.0940 c6         1 DP5       0.193300
     15 C4B          0.0150     0.8250    -1.2440 c6         1 DP5       0.005300
     16 C5B         -0.6950     0.9260     0.1370 c6         1 DP5       0.177300
     17 C6B         -2.1870     0.4600     0.0970 c3         1 DP5       0.166600
     18 O2B          3.5660     0.8230     0.2810 oh         1 DP5      -0.696000
     19 O3B          2.1970     1.0360    -2.3510 oh         1 DP5      -0.650000
     20 S4B         -0.8270     1.8410    -2.5600 ss         1 DP5      -0.410000
     21 O5B          0.0020     0.0980     1.0980 os         1 DP5      -0.432000
     22 O6B         -2.8140     0.4780     1.3940 oh         1 DP5      -0.707000
     23 C1C         -0.6810    -0.9070     6.5280 c6         1 DP5       0.275300
     24 C2C         -1.3600    -1.3580     5.1960 c6         1 DP5       0.160300
     25 C3C         -0.2560    -1.5560     4.1020 c6         1 DP5       0.192300
     26 C4C          0.6550    -0.2960     3.9880 c6         1 DP5       0.006300
     27 C5C          1.2090     0.0870     5.3910 c6         1 DP5       0.177300
     28 C6C          2.0510     1.4080     5.3720 c3         1 DP5       0.167600
     29 O2C         -2.1400    -2.5660     5.3940 oh         1 DP5      -0.699000
     30 O3C         -0.8360    -1.8590     2.8200 oh         1 DP5      -0.650000
     31 S4C          2.0040    -0.5410     2.7250 ss         1 DP5      -0.414000
     32 O5C          0.1070     0.2730     6.3120 os         1 DP5      -0.412000
     33 O6C          2.5030     1.8150     6.6800 oh         1 DP5      -0.706000
     34 H1A         -1.6440    -0.2040    -3.5510 h2         1 DP5       0.072700
     35 H2A         -0.7610     1.9700    -5.5470 h1         1 DP5       0.068700
     36 H3A         -2.1940    -0.6950    -6.0250 h1         1 DP5       0.058700
     37 H4A          0.6390     0.1740    -6.8230 h1         1 DP5       0.092700
     38 H5A         -0.2750    -1.8660    -4.7020 h1         1 DP5       0.069700
     39 H6A1         2.5180    -0.8750    -5.4840 h1         1 DP5       0.040700
     40 H6A2         1.8830    -2.5050    -5.7450 h1         1 DP5       0.040700
     41 HO2A        -2.7520     2.4050    -4.3560 ho         1 DP5       0.525000
     42 HO3A        -2.6240     1.2640    -7.3540 ho         1 DP5       0.470000
     43 HS4A        -0.7830    -1.2830    -8.6500 hs         1 DP5       0.240800
     44 HO6A         3.2490    -2.3200    -3.8520 ho         1 DP5       0.512000
     45 H1B          1.3640     1.5530     1.7100 h2         1 DP5       0.072700
     46 H2B          2.1970    -0.6710    -0.2510 h1         1 DP5       0.065700
     47 H3B          1.5580     2.2750    -0.8080 h1         1 DP5       0.056700
     48 H4B         -0.0400    -0.2290    -1.5530 h1         1 DP5       0.089700
     49 H5B         -0.6770     1.9700     0.4840 h1         1 DP5       0.068700
     50 H6B1        -2.7390     1.1150    -0.5900 h1         1 DP5       0.034700
     51 H6B2        -2.2170    -0.5550    -0.3230 h1         1 DP5       0.034700
     52 HO2B         3.9210     0.2540     1.0030 ho         1 DP5       0.516000
     53 HO3B         1.5200     0.6820    -2.9820 ho         1 DP5       0.480000
     54 HO6B        -3.7220     0.1120     1.2820 ho         1 DP5       0.511000
     55 H1C         -0.0480    -1.7140     6.9270 h2         1 DP5       0.061700
     56 H2C         -2.0180    -0.5400     4.8650 h1         1 DP5       0.066700
     57 H3C          0.3790    -2.3970     4.4190 h1         1 DP5       0.054700
     58 H4C          0.0340     0.5470     3.6490 h1         1 DP5       0.090700
     59 H5C          1.8530    -0.7220     5.7650 h1         1 DP5       0.060700
     60 H6C1         2.9170     1.2580     4.7130 h1         1 DP5       0.034700
     61 H6C2         1.4350     2.1990     4.9240 h1         1 DP5       0.034700
     62 HO2C        -2.8280    -2.3500     6.0660 ho         1 DP5       0.519000
     63 HO3C        -0.5170    -1.1540     2.2010 ho         1 DP5       0.478000
     64 HO6C         2.9600     2.6820     6.5710 ho         1 DP5       0.506000
     65 S1C         -1.9780    -0.4780     7.8000 sh         1 DP5      -0.406800
     66 HS1C        -1.0930    -0.0490     8.7310 hs         1 DP5       0.219800
@<TRIPOS>BOND
     1     1     2 1   
     2     1    10 1   
     3     1    20 1   
     4     1    34 1   
     5     2     3 1   
     6     2     7 1   
     7     2    35 1   
     8     3     4 1   
     9     3     8 1   
    10     3    36 1   
    11     4     5 1   
    12     4     9 1   
    13     4    37 1   
    14     5     6 1   
    15     5    10 1   
    16     5    38 1   
    17     6    11 1   
    18     6    39 1   
    19     6    40 1   
    20     7    41 1   
    21     8    42 1   
    22     9    43 1   
    23    11    44 1   
    24    12    13 1   
    25    12    21 1   
    26    12    31 1   
    27    12    45 1   
    28    13    14 1   
    29    13    18 1   
    30    13    46 1   
    31    14    15 1   
    32    14    19 1   
    33    14    47 1   
    34    15    16 1   
    35    15    20 1   
    36    15    48 1   
    37    16    17 1   
    38    16    21 1   
    39    16    49 1   
    40    17    22 1   
    41    17    50 1   
    42    17    51 1   
    43    18    52 1   
    44    19    53 1   
    45    22    54 1   
    46    23    24 1   
    47    23    32 1   
    48    23    55 1   
    49    23    65 1   
    50    24    25 1   
    51    24    29 1   
    52    24    56 1   
    53    25    26 1   
    54    25    30 1   
    55    25    57 1   
    56    26    27 1   
    57    26    31 1   
    58    26    58 1   
    59    27    28 1   
    60    27    32 1   
    61    27    59 1   
    62    28    33 1   
    63    28    60 1   
    64    28    61 1   
    65    29    62 1   
    66    30    63 1   
    67    33    64 1   
    68    65    66 1   
@<TRIPOS>SUBSTRUCTURE
     1 DP5         1 TEMP              0 ****  ****    0 ROOT
