@<TRIPOS>MOLECULE
DP5
   66    68     1     0     0
SMALL
bcc


@<TRIPOS>ATOM
      1 C1A         -0.5430     0.1170    -4.0910 c6         1 DP5       0.196200
      2 C2A         -1.6220     0.2410    -5.1670 c6         1 DP5       0.095100
      3 C3A         -1.1050    -0.4010    -6.4540 c6         1 DP5       0.156100
      4 C4A          0.2440     0.1940    -6.8420 c6         1 DP5       0.012400
      5 C5A          1.2180     0.0920    -5.6650 c6         1 DP5       0.149100
      6 C6A          2.5400     0.7860    -5.9220 c3         1 DP5       0.143400
      7 O2A         -2.7930    -0.4380    -4.8070 oh         1 DP5      -0.598800
      8 O3A         -1.9950    -0.2000    -7.5180 oh         1 DP5      -0.599800
      9 S4A          0.9600    -0.6910    -8.2710 sh         1 DP5      -0.396900
     10 O5A          0.6430     0.7240    -4.5330 os         1 DP5      -0.387600
     11 O6A          3.3520     0.6180    -4.7870 oh         1 DP5      -0.588800
     12 C1B          0.4600    -0.2130     1.4460 c6         1 DP5       0.188200
     13 C2B          1.4860    -0.4370     0.3340 c6         1 DP5       0.140100
     14 C3B          1.0100     0.2800    -0.9260 c6         1 DP5       0.170100
     15 C4B         -0.4390    -0.1000    -1.2590 c6         1 DP5      -0.042600
     16 C5B         -1.3560     0.0440    -0.0390 c6         1 DP5       0.154100
     17 C6B         -2.7400    -0.5320    -0.2710 c3         1 DP5       0.143400
     18 O2B          2.7360     0.0890     0.6790 oh         1 DP5      -0.573800
     19 O3B          1.8940    -0.0660    -1.9530 oh         1 DP5      -0.587800
     20 S4B         -1.0860     0.9670    -2.5930 ss         1 DP5      -0.314200
     21 O5B         -0.7990    -0.6810     1.0430 os         1 DP5      -0.385600
     22 O6B         -3.4930    -0.3440     0.9010 oh         1 DP5      -0.584800
     23 C1C         -0.3260     0.1150     7.0160 c6         1 DP5       0.204200
     24 C2C         -1.3480     0.4840     5.9390 c6         1 DP5       0.137100
     25 C3C         -0.9940    -0.2550     4.6530 c6         1 DP5       0.169100
     26 C4C          0.4820    -0.0440     4.2910 c6         1 DP5      -0.041600
     27 C5C          1.3980    -0.3330     5.4870 c6         1 DP5       0.154100
     28 C6C          2.8430     0.0460     5.2260 c3         1 DP5       0.144400
     29 O2C         -2.6440     0.1030     6.3050 oh         1 DP5      -0.576800
     30 O3C         -1.8570     0.2140     3.6580 oh         1 DP5      -0.587800
     31 S4C          0.9590    -1.1460     2.9110 ss         1 DP5      -0.318200
     32 O5C          0.9680     0.4360     6.5940 os         1 DP5      -0.365600
     33 O6C          3.5930    -0.2440     6.3790 oh         1 DP5      -0.583800
     34 H1A         -0.3860    -0.9430    -3.8470 h2         1 DP5       0.072700
     35 H2A         -1.8080     1.3090    -5.3560 h1         1 DP5       0.068700
     36 H3A         -0.9570    -1.4740    -6.2560 h1         1 DP5       0.058700
     37 H4A          0.1180     1.2480    -7.1090 h1         1 DP5       0.092700
     38 H5A          1.4000    -0.9720    -5.4430 h1         1 DP5       0.069700
     39 H6A1         2.3480     1.8450    -6.1400 h1         1 DP5       0.040700
     40 H6A2         3.0020     0.3550    -6.8170 h1         1 DP5       0.040700
     41 HO2A        -3.2090     0.0310    -4.0750 ho         1 DP5       0.426000
     42 HO3A        -2.8010    -0.6950    -7.3390 ho         1 DP5       0.431000
     43 HS4A        -0.0390    -0.4510    -9.1250 hs         1 DP5       0.240800
     44 HO6A         4.1630     1.1160    -4.9220 ho         1 DP5       0.413000
     45 H1B          0.4290     0.8540     1.7090 h2         1 DP5       0.072700
     46 H2B          1.5370    -1.5170     0.1250 h1         1 DP5       0.065700
     47 H3B          1.0340     1.3620    -0.7190 h1         1 DP5       0.056700
     48 H4B         -0.4740    -1.1370    -1.6100 h1         1 DP5       0.089700
     49 H5B         -1.4420     1.1080     0.2330 h1         1 DP5       0.068700
     50 H6B1        -3.1950    -0.0310    -1.1300 h1         1 DP5       0.034700
     51 H6B2        -2.6390    -1.5940    -0.5330 h1         1 DP5       0.034700
     52 HO2B         3.0630    -0.3910     1.4480 ho         1 DP5       0.417000
     53 HO3B         1.7440     0.4860    -2.7310 ho         1 DP5       0.441000
     54 HO6B        -4.3560    -0.7480     0.7720 ho         1 DP5       0.412000
     55 H1C         -0.4180    -0.9530     7.2550 h2         1 DP5       0.061700
     56 H2C         -1.2730     1.5680     5.7530 h1         1 DP5       0.066700
     57 H3C         -1.1390    -1.3310     4.8430 h1         1 DP5       0.054700
     58 H4C          0.6370     0.9900     3.9650 h1         1 DP5       0.090700
     59 H5C          1.3430    -1.4050     5.7370 h1         1 DP5       0.060700
     60 H6C1         3.2030    -0.5160     4.3590 h1         1 DP5       0.034700
     61 H6C2         2.8870     1.1120     4.9610 h1         1 DP5       0.034700
     62 HO2C        -2.8690     0.5490     7.1300 ho         1 DP5       0.420000
     63 HO3C        -1.8040    -0.3450     2.8720 ho         1 DP5       0.439000
     64 HO6C         4.5210    -0.1050     6.1700 ho         1 DP5       0.407000
     65 S1C         -0.6860     1.0600     8.5230 sh         1 DP5      -0.358900
     66 HS1C        -0.3920     0.1030     9.4080 hs         1 DP5       0.219800
@<TRIPOS>BOND
     1     1     2 1   
     2     1    10 1   
     3     1    20 1   
     4     1    34 1   
     5     2     3 1   
     6     2     7 1   
     7     2    35 1   
     8     3     4 1   
     9     3     8 1   
    10     3    36 1   
    11     4     5 1   
    12     4     9 1   
    13     4    37 1   
    14     5     6 1   
    15     5    10 1   
    16     5    38 1   
    17     6    11 1   
    18     6    39 1   
    19     6    40 1   
    20     7    41 1   
    21     8    42 1   
    22     9    43 1   
    23    11    44 1   
    24    12    13 1   
    25    12    21 1   
    26    12    31 1   
    27    12    45 1   
    28    13    14 1   
    29    13    18 1   
    30    13    46 1   
    31    14    15 1   
    32    14    19 1   
    33    14    47 1   
    34    15    16 1   
    35    15    20 1   
    36    15    48 1   
    37    16    17 1   
    38    16    21 1   
    39    16    49 1   
    40    17    22 1   
    41    17    50 1   
    42    17    51 1   
    43    18    52 1   
    44    19    53 1   
    45    22    54 1   
    46    23    24 1   
    47    23    32 1   
    48    23    55 1   
    49    23    65 1   
    50    24    25 1   
    51    24    29 1   
    52    24    56 1   
    53    25    26 1   
    54    25    30 1   
    55    25    57 1   
    56    26    27 1   
    57    26    31 1   
    58    26    58 1   
    59    27    28 1   
    60    27    32 1   
    61    27    59 1   
    62    28    33 1   
    63    28    60 1   
    64    28    61 1   
    65    29    62 1   
    66    30    63 1   
    67    33    64 1   
    68    65    66 1   
@<TRIPOS>SUBSTRUCTURE
     1 DP5         1 TEMP              0 ****  ****    0 ROOT
