@<TRIPOS>MOLECULE
DP8
   38    39     1     0     0
SMALL
No Charge or Current Charge


@<TRIPOS>ATOM
      1 C           -6.6630     1.0510    -0.8840 c3         1 DP8       0.151100
      2 N           -5.4680     0.2570    -0.5230 n3         1 DP8      -0.705600
      3 O           -2.5610     0.4050     0.2720 os         1 DP8      -0.324100
      4 C01          6.0390    -0.0710    -0.7890 ca         1 DP8      -0.080000
      5 C02          6.0220     1.2960    -0.4580 ca         1 DP8      -0.144000
      6 C03          4.9180     1.8450     0.2160 ca         1 DP8      -0.080000
      7 C04          3.8250     1.0280     0.5550 ca         1 DP8      -0.160500
      8 C05          3.8350    -0.3390     0.2120 ca         1 DP8       0.135100
      9 C06          4.9460    -0.8870    -0.4490 ca         1 DP8      -0.160500
     10 C07          1.4670    -0.7640     0.4810 ca         1 DP8       0.055100
     11 C08          1.0060     0.0620    -0.5640 ca         1 DP8      -0.082500
     12 C09         -0.3470     0.4420    -0.6110 ca         1 DP8      -0.166000
     13 C10         -1.2470    -0.0020     0.3720 ca         1 DP8       0.144100
     14 C11         -0.7860    -0.8410     1.4110 ca         1 DP8      -0.166000
     15 C12          0.5680    -1.2210     1.4590 ca         1 DP8      -0.082500
     16 C13         -3.5660    -0.0010     1.2230 c3         1 DP8       0.165600
     17 C14         -4.9290     0.6280     0.8210 c3         1 DP8       0.167800
     18 C15         -5.6940    -1.1970    -0.6940 c3         1 DP8       0.151100
     19 H           -6.4460     2.1260    -0.8330 h1         1 DP8       0.030867
     20 HA          -6.9870     0.8220    -1.9080 h1         1 DP8       0.030867
     21 HB          -7.4970     0.8360    -0.2020 h1         1 DP8       0.030867
     22 H02          6.8680     1.9280    -0.7200 ha         1 DP8       0.114000
     23 H03          4.9100     2.9020     0.4770 ha         1 DP8       0.112000
     24 H04          2.9780     1.4550     1.0860 ha         1 DP8       0.126000
     25 H06          4.9570    -1.9450    -0.7020 ha         1 DP8       0.126000
     26 H08          1.6900     0.4040    -1.3370 ha         1 DP8       0.127500
     27 H09         -0.7020     1.0820    -1.4150 ha         1 DP8       0.125500
     28 H11         -1.4560    -1.2050     2.1840 ha         1 DP8       0.125500
     29 H12          0.9240    -1.8690     2.2580 ha         1 DP8       0.127500
     30 H13         -3.6560    -1.0940     1.2540 h1         1 DP8       0.033200
     31 H13A        -3.3010     0.3480     2.2290 h1         1 DP8       0.033200
     32 H14         -4.8100     1.7180     0.8760 h1         1 DP8       0.041200
     33 H14A        -5.6610     0.3570     1.5940 h1         1 DP8       0.041200
     34 H15         -6.0770    -1.4130    -1.7000 h1         1 DP8       0.030867
     35 H15A        -4.7610    -1.7610    -0.5700 h1         1 DP8       0.030867
     36 H15B        -6.4240    -1.5690     0.0370 h1         1 DP8       0.030867
     37 O01          2.7840    -1.1640     0.5460 os         1 DP8      -0.250200
     38 H01          6.8970    -0.4960    -1.3060 ha         1 DP8       0.112000
@<TRIPOS>BOND
     1     1     2 1   
     2     1    19 1   
     3     1    20 1   
     4     1    21 1   
     5     2    17 1   
     6     2    18 1   
     7     3    13 1   
     8     3    16 1   
     9     4     5 ar  
    10     4     9 ar  
    11     4    38 1   
    12     5     6 ar  
    13     5    22 1   
    14     6     7 ar  
    15     6    23 1   
    16     7     8 ar  
    17     7    24 1   
    18     8     9 ar  
    19     8    37 1   
    20     9    25 1   
    21    10    11 ar  
    22    10    15 ar  
    23    10    37 1   
    24    11    12 ar  
    25    11    26 1   
    26    12    13 ar  
    27    12    27 1   
    28    13    14 ar  
    29    14    15 ar  
    30    14    28 1   
    31    15    29 1   
    32    16    17 1   
    33    16    30 1   
    34    16    31 1   
    35    17    32 1   
    36    17    33 1   
    37    18    34 1   
    38    18    35 1   
    39    18    36 1   
@<TRIPOS>SUBSTRUCTURE
     1 DP8         1 TEMP              0 ****  ****    0 ROOT
