@<TRIPOS>MOLECULE
DP8
   38    39     1     0     0
SMALL
abcg2


@<TRIPOS>ATOM
      1 C           -6.5140     0.9970    -0.7440 c3         1 DP8       0.151100
      2 N           -5.3990     0.1670    -0.3460 n3         1 DP8      -0.705600
      3 O           -2.5410     0.3540    -0.0280 os         1 DP8      -0.324100
      4 C01          6.0890     0.0290    -0.2180 ca         1 DP8      -0.080000
      5 C02          5.9190     1.3310     0.2380 ca         1 DP8      -0.144000
      6 C03          4.6440     1.7750     0.5520 ca         1 DP8      -0.080000
      7 C04          3.5420     0.9390     0.4180 ca         1 DP8      -0.160500
      8 C05          3.7250    -0.3600    -0.0420 ca         1 DP8       0.135100
      9 C06          5.0010    -0.8160    -0.3620 ca         1 DP8      -0.160500
     10 C07          1.4150    -0.8280    -0.1160 ca         1 DP8       0.055100
     11 C08          0.8450    -0.1230    -1.1700 ca         1 DP8      -0.082500
     12 C09         -0.4790     0.2600    -1.1060 ca         1 DP8      -0.166000
     13 C10         -1.2590    -0.0570     0.0090 ca         1 DP8       0.144100
     14 C11         -0.6830    -0.7630     1.0600 ca         1 DP8      -0.166000
     15 C12          0.6540    -1.1400     0.9940 ca         1 DP8      -0.082500
     16 C13         -3.3700     0.1060     1.0840 c3         1 DP8       0.165600
     17 C14         -4.7300     0.7130     0.8120 c3         1 DP8       0.167800
     18 C15         -5.8140    -1.2050    -0.1650 c3         1 DP8       0.151100
     19 H           -6.1740     2.0130    -0.9460 h1         1 DP8       0.030867
     20 HA          -6.9590     0.6110    -1.6620 h1         1 DP8       0.030867
     21 HB          -7.3130     1.0560     0.0120 h1         1 DP8       0.030867
     22 H02          6.7700     1.9880     0.3480 ha         1 DP8       0.114000
     23 H03          4.4940     2.7840     0.9110 ha         1 DP8       0.112000
     24 H04          2.5590     1.3080     0.6780 ha         1 DP8       0.126000
     25 H06          5.1350    -1.8290    -0.7190 ha         1 DP8       0.126000
     26 H08          1.4340     0.1230    -2.0440 ha         1 DP8       0.127500
     27 H09         -0.9270     0.8050    -1.9260 ha         1 DP8       0.125500
     28 H11         -1.2500    -1.0320     1.9400 ha         1 DP8       0.125500
     29 H12          1.1010    -1.6870     1.8150 ha         1 DP8       0.127500
     30 H13         -3.4450    -0.9700     1.2810 h1         1 DP8       0.033200
     31 H13A        -2.9590     0.5680     1.9910 h1         1 DP8       0.033200
     32 H14         -4.5980     1.7860     0.6580 h1         1 DP8       0.041200
     33 H14A        -5.3300     0.6070     1.7350 h1         1 DP8       0.041200
     34 H15         -6.2860    -1.5690    -1.0780 h1         1 DP8       0.030867
     35 H15A        -4.9600    -1.8550     0.0290 h1         1 DP8       0.030867
     36 H15B        -6.5340    -1.3390     0.6590 h1         1 DP8       0.030867
     37 O01          2.7140    -1.2600    -0.1850 os         1 DP8      -0.250200
     38 H01          7.0770    -0.3340    -0.4680 ha         1 DP8       0.112000
@<TRIPOS>BOND
     1     1     2 1   
     2     1    19 1   
     3     1    20 1   
     4     1    21 1   
     5     2    17 1   
     6     2    18 1   
     7     3    13 1   
     8     3    16 1   
     9     4     5 ar  
    10     4     9 ar  
    11     4    38 1   
    12     5     6 ar  
    13     5    22 1   
    14     6     7 ar  
    15     6    23 1   
    16     7     8 ar  
    17     7    24 1   
    18     8     9 ar  
    19     8    37 1   
    20     9    25 1   
    21    10    11 ar  
    22    10    15 ar  
    23    10    37 1   
    24    11    12 ar  
    25    11    26 1   
    26    12    13 ar  
    27    12    27 1   
    28    13    14 ar  
    29    14    15 ar  
    30    14    28 1   
    31    15    29 1   
    32    16    17 1   
    33    16    30 1   
    34    16    31 1   
    35    17    32 1   
    36    17    33 1   
    37    18    34 1   
    38    18    35 1   
    39    18    36 1   
@<TRIPOS>SUBSTRUCTURE
     1 DP8         1 TEMP              0 ****  ****    0 ROOT
