@<TRIPOS>MOLECULE
DP9
   45    45     1     0     0
SMALL
bcc


@<TRIPOS>ATOM
      1 HH2         -5.3940    -0.6330    -1.6500 n2         1 DP9      -0.294000
      2 HZ          -5.3750    -0.3080    -0.4260 c2         1 DP9       0.245000
      3 HH1         -6.4780    -0.2370     0.4640 n7         1 DP9      -0.410000
      4 HO          -7.5550    -1.0350     0.4520 n3         1 DP9       0.657000
      5 H2          -7.6700    -1.8490    -0.4320 o          1 DP9      -0.362500
      6 H3          -8.3450    -0.8660     1.3530 o          1 DP9      -0.362500
      7 HE          -4.2580     0.1300     0.2080 n7         1 DP9      -0.343000
      8 HD          -3.0020     0.2200    -0.5030 c3         1 DP9      -0.012000
      9 HG          -1.9850     1.0060     0.3070 c3         1 DP9      -0.166000
     10 HB          -0.6390     1.0670    -0.4000 c3         1 DP9      -0.142000
     11 HA           0.3920     1.9080     0.3580 c3         1 DP9      -0.056000
     12 H           -0.0240     3.2940     0.4090 n8         1 DP9      -0.309000
     13 H            1.7520     1.7160    -0.3150 c          1 DP9       0.267000
     14 H            2.0490     2.3300    -1.3310 o          1 DP9      -0.357000
     15 H2           2.5530     0.8050     0.2610 n7         1 DP9      -0.375000
     16 H2           3.8600     0.4480    -0.2320 c5         1 DP9       0.026000
     17 H1           5.0030     1.2650     0.3760 c5         1 DP9      -0.101000
     18 H3           6.1370     0.3910     0.1620 n7         1 DP9      -0.256000
     19 H4           5.7040    -0.9170     0.6020 c5         1 DP9      -0.065000
     20 H5           6.5590    -2.0350     0.0250 c          1 DP9       0.316000
     21 H1           7.2260    -1.9020    -0.9880 o          1 DP9      -0.328000
     22 H1           6.4760    -3.1860     0.7100 n8         1 DP9      -0.445000
     23 H3           4.2420    -1.0060     0.1040 c5         1 DP9      -0.164000
     24 HH2         -6.3240    -0.8120    -1.9990 ha         1 DP9       0.185000
     25 HH1         -6.4370     0.3590     1.2810 ha         1 DP9       0.271000
     26 HNE         -4.1920    -0.0540     1.1980 ha         1 DP9       0.218000
     27 HD1         -3.1840     0.7160    -1.4570 ha         1 DP9       0.095500
     28 HD2         -2.6090    -0.7770    -0.7390 ha         1 DP9       0.095500
     29 HG1         -1.8510     0.5400     1.2900 ha         1 DP9       0.092000
     30 HG2         -2.3570     2.0170     0.4850 ha         1 DP9       0.092000
     31 HB1         -0.7630     1.4800    -1.4070 ha         1 DP9       0.093500
     32 HB2         -0.2500     0.0520    -0.5300 ha         1 DP9       0.093500
     33 HA           0.4450     1.5360     1.3870 ha         1 DP9       0.095000
     34 HN1          0.5940     3.8190     1.0160 ha         1 DP9       0.150500
     35 HN2          0.0740     3.7040    -0.5130 ha         1 DP9       0.150500
     36 H2           2.2660     0.4090     1.1420 ha         1 DP9       0.220000
     37 HG           3.8600     0.5860    -1.3120 ha         1 DP9       0.143000
     38 HD'1         5.1390     2.2280    -0.1170 ha         1 DP9       0.084000
     39 HD'2         4.7850     1.4560     1.4380 ha         1 DP9       0.084000
     40 HN           6.9620     0.7030     0.6580 ha         1 DP9       0.169000
     41 H3           5.7020    -1.0070     1.6990 ha         1 DP9       0.062000
     42 H1'1         5.9440    -3.2570     1.5600 ha         1 DP9       0.226500
     43 H1'2         6.9640    -4.0090     0.3980 ha         1 DP9       0.226500
     44 HB'1         3.6010    -1.4250     0.8800 ha         1 DP9       0.096000
     45 HB'2         4.1420    -1.6460    -0.7720 ha         1 DP9       0.096000
@<TRIPOS>BOND
     1     1     2 2   
     2     1    24 1   
     3     2     3 1   
     4     2     7 1   
     5     3     4 1   
     6     3    25 1   
     7     4     5 1   
     8     4     6 1   
     9     7     8 1   
    10     7    26 1   
    11     8     9 1   
    12     8    27 1   
    13     8    28 1   
    14     9    10 1   
    15     9    29 1   
    16     9    30 1   
    17    10    11 1   
    18    10    31 1   
    19    10    32 1   
    20    11    12 1   
    21    11    13 1   
    22    11    33 1   
    23    12    34 1   
    24    12    35 1   
    25    13    14 2   
    26    13    15 1   
    27    15    16 1   
    28    15    36 1   
    29    16    17 1   
    30    16    23 1   
    31    16    37 1   
    32    17    18 1   
    33    17    38 1   
    34    17    39 1   
    35    18    19 1   
    36    18    40 1   
    37    19    20 1   
    38    19    23 1   
    39    19    41 1   
    40    20    21 2   
    41    20    22 1   
    42    22    42 1   
    43    22    43 1   
    44    23    44 1   
    45    23    45 1   
@<TRIPOS>SUBSTRUCTURE
     1 DP9         1 TEMP              0 ****  ****    0 ROOT
