@<TRIPOS>MOLECULE
DP9
   45    45     1     0     0
SMALL
No Charge or Current Charge


@<TRIPOS>ATOM
      1 NH2         -5.6560    -0.8610    -1.8020 n2         1 DP9      -0.826100
      2 CZ          -5.6290    -0.5450    -0.5970 c2         1 DP9       0.837100
      3 NH1         -6.5880     0.2300    -0.1970 nu         1 DP9      -0.940700
      4 NO          -7.5450    -0.1100     0.6780 no         1 DP9       0.855500
      5 O2          -7.8810    -1.2930     0.6210 o          1 DP9      -0.402500
      6 O3          -7.4060     0.4830     1.7400 o          1 DP9      -0.402500
      7 NE          -4.5270    -0.0500    -0.0250 nu         1 DP9      -0.913400
      8 CD          -3.2430     0.1070    -0.7310 c3         1 DP9       0.224800
      9 CG          -2.1860     0.7200     0.2080 c3         1 DP9      -0.087400
     10 CB          -0.8120     0.9160    -0.4800 c3         1 DP9      -0.063400
     11 CA           0.2950     1.4850     0.4470 c3         1 DP9       0.091500
     12 N           -0.0610     2.8690     0.9100 n8         1 DP9      -0.987200
     13 C            1.7030     1.3630    -0.2420 c          1 DP9       0.556100
     14 O            2.0340     2.0670    -1.1890 o          1 DP9      -0.596100
     15 N2           2.5520     0.4270     0.3250 ns         1 DP9      -0.498900
     16 C2           3.9000     0.2670    -0.2470 c5         1 DP9       0.102700
     17 C1           4.8030     1.3440     0.4040 c5         1 DP9       0.135800
     18 N3           6.1380     0.7510     0.1890 n7         1 DP9      -0.832400
     19 C4           5.9880    -0.6790     0.6330 c5         1 DP9       0.082500
     20 C5           6.9520    -1.7340    -0.0450 c          1 DP9       0.605100
     21 O1           7.7940    -1.5020    -0.9010 o          1 DP9      -0.567100
     22 N1           6.8020    -3.0040     0.4050 nt         1 DP9      -0.618000
     23 C3           4.4800    -1.0420     0.3700 c5         1 DP9      -0.085400
     24 HH2         -6.6360    -0.7210    -2.0660 hn         1 DP9       0.429400
     25 HH1         -6.1550     1.0230     0.2370 hn         1 DP9       0.531000
     26 HNE         -4.4460    -0.3350     0.9460 hn         1 DP9       0.478000
     27 HD1         -3.3700     0.7620    -1.6040 h1         1 DP9       0.056200
     28 HD2         -2.8870    -0.8690    -1.0900 h1         1 DP9       0.056200
     29 HG1         -2.0590     0.0700     1.0830 hc         1 DP9       0.052700
     30 HG2         -2.5550     1.6860     0.5730 hc         1 DP9       0.052700
     31 HB1         -0.9290     1.5720    -1.3530 hc         1 DP9       0.054200
     32 HB2         -0.4760    -0.0550    -0.8650 hc         1 DP9       0.054200
     33 HA           0.3290     0.8470     1.3420 h1         1 DP9       0.055700
     34 HN1          0.6620     3.2100     1.5560 hn         1 DP9       0.410500
     35 HN2          0.0210     3.5130     0.1120 hn         1 DP9       0.410500
     36 H2           2.2050    -0.1060     1.1140 hn         1 DP9       0.306500
     37 HG           3.9480     0.2800    -1.3460 h1         1 DP9       0.103700
     38 HD'1         4.7040     2.3270    -0.0780 h1         1 DP9       0.044700
     39 HD'2         4.5940     1.4590     1.4780 h1         1 DP9       0.044700
     40 HN           6.8600     1.2370     0.7400 hn         1 DP9       0.429000
     41 H3           6.1730    -0.7320     1.7150 h1         1 DP9       0.022700
     42 H1'1         6.1180    -3.2120     1.1170 hn         1 DP9       0.313000
     43 H1'2         7.3850    -3.7350     0.0230 hn         1 DP9       0.313000
     44 HB'1         3.9950    -1.3220     1.3130 hc         1 DP9       0.056700
     45 HB'2         4.3510    -1.8860    -0.3170 hc         1 DP9       0.056700
@<TRIPOS>BOND
     1     1     2 2   
     2     1    24 1   
     3     2     3 1   
     4     2     7 1   
     5     3     4 1   
     6     3    25 1   
     7     4     5 1   
     8     4     6 1   
     9     7     8 1   
    10     7    26 1   
    11     8     9 1   
    12     8    27 1   
    13     8    28 1   
    14     9    10 1   
    15     9    29 1   
    16     9    30 1   
    17    10    11 1   
    18    10    31 1   
    19    10    32 1   
    20    11    12 1   
    21    11    13 1   
    22    11    33 1   
    23    12    34 1   
    24    12    35 1   
    25    13    14 2   
    26    13    15 1   
    27    15    16 1   
    28    15    36 1   
    29    16    17 1   
    30    16    23 1   
    31    16    37 1   
    32    17    18 1   
    33    17    38 1   
    34    17    39 1   
    35    18    19 1   
    36    18    40 1   
    37    19    20 1   
    38    19    23 1   
    39    19    41 1   
    40    20    21 2   
    41    20    22 1   
    42    22    42 1   
    43    22    43 1   
    44    23    44 1   
    45    23    45 1   
@<TRIPOS>SUBSTRUCTURE
     1 DP9         1 TEMP              0 ****  ****    0 ROOT
