@<TRIPOS>MOLECULE
DPA
   34    34     1     0     0
SMALL
abcg2


@<TRIPOS>ATOM
      1 C1          -2.7390    -0.4400    -0.4610 c          1 DPA       0.589500
      2 C2          -1.3820    -0.1480    -0.9300 ca         1 DPA      -0.215600
      3 C3          -1.0930    -0.2620    -2.3000 ca         1 DPA      -0.112000
      4 C4           0.1790    -0.0550    -2.7790 ca         1 DPA       0.094100
      5 C5           1.2110     0.2890    -1.8690 ca         1 DPA       0.160100
      6 C6           0.9230     0.4240    -0.5220 ca         1 DPA      -0.194000
      7 C7          -0.3690     0.2100    -0.0480 ca         1 DPA       0.015000
      8 C8          -0.0260    -0.3290     2.2970 c          1 DPA       0.614300
      9 C9          -0.3280     0.1160     3.6990 ce         1 DPA       0.037900
     10 C10         -0.4920     1.3990     4.0260 c2         1 DPA      -0.421000
     11 C11         -0.4230    -0.5100    -5.0180 c3         1 DPA       0.143900
     12 C12          3.4940     0.8320    -1.5690 c3         1 DPA       0.142900
     13 C13         -0.4970    -0.6820     5.9030 c3         1 DPA       0.141900
     14 N7          -0.6310     0.3960     1.3260 ns         1 DPA      -0.176000
     15 O1          -3.6640    -0.7220    -1.1920 o          1 DPA      -0.525100
     16 O4           0.5540    -0.1450    -4.0630 os         1 DPA      -0.320100
     17 O5           2.4130     0.4750    -2.4130 os         1 DPA      -0.314100
     18 O8           0.7060    -1.2720     2.0760 o          1 DPA      -0.541100
     19 O9          -0.3280    -0.9370     4.5230 os         1 DPA      -0.311100
     20 H1          -2.8850    -0.4060     0.6290 h4         1 DPA      -0.010800
     21 H3          -1.9000    -0.5290    -2.9700 ha         1 DPA       0.142000
     22 H6           1.6920     0.7200     0.1790 ha         1 DPA       0.134000
     23 H101        -0.4280     2.1690     3.2720 ha         1 DPA       0.179500
     24 H102        -0.6620     1.7350     5.0390 ha         1 DPA       0.179500
     25 H111         0.0800    -0.5250    -5.9820 h1         1 DPA       0.043367
     26 H112        -0.8350    -1.5030    -4.8190 h1         1 DPA       0.043367
     27 H113        -1.2430     0.2110    -5.0590 h1         1 DPA       0.043367
     28 H121         4.3670     0.9190    -2.2110 h1         1 DPA       0.046033
     29 H122         3.3210     1.7900    -1.0740 h1         1 DPA       0.046033
     30 H123         3.6860     0.0670    -0.8130 h1         1 DPA       0.046033
     31 H131        -0.4480    -1.6440     6.4070 h1         1 DPA       0.044033
     32 H132         0.2950    -0.0340     6.2900 h1         1 DPA       0.044033
     33 H133        -1.4640    -0.2180     6.1130 h1         1 DPA       0.044033
     34 HN7         -1.3220     1.0810     1.5920 hn         1 DPA       0.166000
@<TRIPOS>BOND
     1     1     2 1   
     2     1    15 2   
     3     1    20 1   
     4     2     3 ar  
     5     2     7 ar  
     6     3     4 ar  
     7     3    21 1   
     8     4     5 ar  
     9     4    16 1   
    10     5     6 ar  
    11     5    17 1   
    12     6     7 ar  
    13     6    22 1   
    14     7    14 1   
    15     8     9 1   
    16     8    14 1   
    17     8    18 2   
    18     9    10 2   
    19     9    19 1   
    20    10    23 1   
    21    10    24 1   
    22    11    16 1   
    23    11    25 1   
    24    11    26 1   
    25    11    27 1   
    26    12    17 1   
    27    12    28 1   
    28    12    29 1   
    29    12    30 1   
    30    13    19 1   
    31    13    31 1   
    32    13    32 1   
    33    13    33 1   
    34    14    34 1   
@<TRIPOS>SUBSTRUCTURE
     1 DPA         1 TEMP              0 ****  ****    0 ROOT
