@<TRIPOS>MOLECULE
DPA
   34    34     1     0     0
SMALL
No Charge or Current Charge


@<TRIPOS>ATOM
      1 C1          -2.7970    -0.1010    -0.5000 c          1 DPA       0.589500
      2 C2          -1.3630    -0.0180    -0.9800 ca         1 DPA      -0.215600
      3 C3          -1.1000    -0.0460    -2.3700 ca         1 DPA      -0.112000
      4 C4           0.2220     0.0200    -2.8610 ca         1 DPA       0.094100
      5 C5           1.2950     0.1220    -1.9500 ca         1 DPA       0.160100
      6 C6           1.0350     0.1520    -0.5630 ca         1 DPA      -0.194000
      7 C7          -0.2830     0.0700    -0.0680 ca         1 DPA       0.015000
      8 C8           0.2410    -0.2410     2.4250 c          1 DPA       0.614300
      9 C9          -0.3780     0.0590     3.7900 ce         1 DPA       0.037900
     10 C10         -1.5970     0.6490     3.9550 c2         1 DPA      -0.421000
     11 C11         -0.5230    -0.1080    -5.2220 c3         1 DPA       0.143900
     12 C12          3.7450     0.2920    -1.6100 c3         1 DPA       0.142900
     13 C13         -0.0070    -0.1200     6.2260 c3         1 DPA       0.141900
     14 N7          -0.5410     0.1170     1.3310 ns         1 DPA      -0.176000
     15 O1          -3.7580    -0.1670    -1.2590 o          1 DPA      -0.525100
     16 O4           0.5030    -0.0070    -4.2190 os         1 DPA      -0.320100
     17 O5           2.5840     0.1970    -2.4550 os         1 DPA      -0.314100
     18 O8           1.3410    -0.7760     2.3070 o          1 DPA      -0.541100
     19 O9           0.4180    -0.3260     4.8660 os         1 DPA      -0.311100
     20 H1          -2.9580    -0.1000     0.6000 h4         1 DPA      -0.010800
     21 H3          -1.9360    -0.1210    -3.0600 ha         1 DPA       0.142000
     22 H6           1.8570     0.2580     0.1350 ha         1 DPA       0.134000
     23 H101        -2.2240     0.9570     3.1190 ha         1 DPA       0.179500
     24 H102        -2.0250     0.8570     4.9350 ha         1 DPA       0.179500
     25 H111        -0.0750    -0.1130    -6.2240 h1         1 DPA       0.043367
     26 H112        -1.0970    -1.0360    -5.1030 h1         1 DPA       0.043367
     27 H113        -1.2120     0.7440    -5.1640 h1         1 DPA       0.043367
     28 H121         4.6560     0.3310    -2.2200 h1         1 DPA       0.046033
     29 H122         3.7080     1.2020    -0.9970 h1         1 DPA       0.046033
     30 H123         3.8170    -0.5790    -0.9470 h1         1 DPA       0.046033
     31 H131         0.7560    -0.4890     6.9220 h1         1 DPA       0.044033
     32 H132        -0.1630     0.9470     6.4290 h1         1 DPA       0.044033
     33 H133        -0.9410    -0.6590     6.4290 h1         1 DPA       0.044033
     34 HN7         -1.4400     0.5060     1.5770 hn         1 DPA       0.166000
@<TRIPOS>BOND
     1     1     2 1   
     2     1    15 2   
     3     1    20 1   
     4     2     3 ar  
     5     2     7 ar  
     6     3     4 ar  
     7     3    21 1   
     8     4     5 ar  
     9     4    16 1   
    10     5     6 ar  
    11     5    17 1   
    12     6     7 ar  
    13     6    22 1   
    14     7    14 1   
    15     8     9 1   
    16     8    14 1   
    17     8    18 2   
    18     9    10 2   
    19     9    19 1   
    20    10    23 1   
    21    10    24 1   
    22    11    16 1   
    23    11    25 1   
    24    11    26 1   
    25    11    27 1   
    26    12    17 1   
    27    12    28 1   
    28    12    29 1   
    29    12    30 1   
    30    13    19 1   
    31    13    31 1   
    32    13    32 1   
    33    13    33 1   
    34    14    34 1   
@<TRIPOS>SUBSTRUCTURE
     1 DPA         1 TEMP              0 ****  ****    0 ROOT
