@<TRIPOS>MOLECULE
DPC
   54    55     1     0     0
SMALL
bcc


@<TRIPOS>ATOM
      1 C1          -3.0400    -1.2330    -3.8580 c          1 DPC       0.938800
      2 O1A         -3.1690    -1.4560    -5.0750 o          1 DPC      -0.798300
      3 O1B         -3.8970    -1.3430    -2.9670 o          1 DPC      -0.798300
      4 C2          -1.6610    -0.7610    -3.4060 ce         1 DPC       0.041900
      5 C3          -0.6530    -0.5240    -4.2460 c2         1 DPC      -0.341200
      6 C4           0.7110    -0.0890    -3.8070 c6         1 DPC       0.212700
      7 C5           0.8620    -0.3580    -2.3130 c6         1 DPC       0.075700
      8 N5           2.0100     0.3470    -1.7980 ns         1 DPC      -0.578900
      9 C10          2.8900    -0.1390    -0.8940 c          1 DPC       0.666100
     10 O10          2.8290    -1.2710    -0.4440 o          1 DPC      -0.583100
     11 C11          3.9490     0.8430    -0.4580 c3         1 DPC      -0.182100
     12 C6          -0.4230     0.0820    -1.5890 c6         1 DPC       0.054100
     13 O6          -1.5590    -0.6040    -2.0630 os         1 DPC      -0.265900
     14 C7          -0.3100    -0.2830    -0.1110 c          1 DPC       0.679100
     15 O7          -0.3120    -1.4650     0.1960 o          1 DPC      -0.557100
     16 N8          -0.1410     0.7020     0.7930 n          1 DPC      -0.486800
     17 C81          0.1810     0.3250     2.1610 c3         1 DPC       0.102000
     18 C82         -1.0540    -0.0130     3.0020 c3         1 DPC      -0.062100
     19 CG          -0.6650    -0.3380     4.4160 ca         1 DPC      -0.067300
     20 CD1         -0.8180     0.5950     5.4380 ca         1 DPC      -0.125000
     21 CD2         -0.1000    -1.5750     4.7240 ca         1 DPC      -0.125000
     22 CE1         -0.4240     0.3010     6.7370 ca         1 DPC      -0.133000
     23 CE2          0.2990    -1.8730     6.0200 ca         1 DPC      -0.133000
     24 CZ           0.1360    -0.9350     7.0320 ca         1 DPC      -0.140000
     25 C9          -0.4510     2.1100     0.5860 c3         1 DPC       0.109000
     26 C91          0.7630     2.9860     0.3090 c3         1 DPC      -0.096400
     27 C92          0.3940     4.4610     0.3000 c3         1 DPC      -0.090100
     28 NE           1.7300    -0.8260    -4.5400 n8         1 DPC      -0.864800
     29 H3          -0.8310    -0.6550    -5.3040 ha         1 DPC       0.158000
     30 H4           0.7980     1.0010    -3.9620 h1         1 DPC      -0.011300
     31 H5           1.0090    -1.4290    -2.1610 h1         1 DPC       0.129700
     32 HN5          2.1540     1.2860    -2.1340 hn         1 DPC       0.293500
     33 H111         4.9110     0.3410    -0.3820 hc         1 DPC       0.050700
     34 H112         4.0470     1.6970    -1.1250 hc         1 DPC       0.050700
     35 H113         3.6950     1.2190     0.5340 hc         1 DPC       0.050700
     36 H6          -0.5540     1.1560    -1.7600 h1         1 DPC       0.032700
     37 H811         0.8680    -0.5210     2.1460 h1         1 DPC       0.052700
     38 H812         0.7180     1.1600     2.6150 h1         1 DPC       0.052700
     39 H821        -1.7460     0.8320     2.9910 hc         1 DPC       0.063700
     40 H822        -1.5740    -0.8590     2.5490 hc         1 DPC       0.063700
     41 HD1         -1.2550     1.5620     5.2150 ha         1 DPC       0.135500
     42 HD2          0.0250    -2.3160     3.9420 ha         1 DPC       0.135500
     43 HE1         -0.5570     1.0360     7.5200 ha         1 DPC       0.123000
     44 HE2          0.7330    -2.8400     6.2420 ha         1 DPC       0.123000
     45 HZ           0.4420    -1.1680     8.0440 ha         1 DPC       0.120000
     46 H91         -0.9490     2.4640     1.4930 h1         1 DPC       0.049200
     47 H92         -1.1900     2.2260    -0.2060 h1         1 DPC       0.049200
     48 H911         1.2000     2.7100    -0.6520 hc         1 DPC       0.040200
     49 H912         1.5300     2.7990     1.0660 hc         1 DPC       0.040200
     50 H921         1.2610     5.0810     0.0750 hc         1 DPC       0.031033
     51 H922        -0.3690     4.6750    -0.4510 hc         1 DPC       0.031033
     52 H923         0.0020     4.7770     1.2690 hc         1 DPC       0.031033
     53 HNE1         1.6270    -0.6370    -5.5300 hn         1 DPC       0.324800
     54 HNE2         2.6440    -0.4650    -4.2930 hn         1 DPC       0.324800
@<TRIPOS>BOND
     1     1     2 1   
     2     1     3 1   
     3     1     4 1   
     4     4     5 2   
     5     4    13 1   
     6     5     6 1   
     7     5    29 1   
     8     6     7 1   
     9     6    28 1   
    10     6    30 1   
    11     7     8 1   
    12     7    12 1   
    13     7    31 1   
    14     8     9 1   
    15     8    32 1   
    16     9    10 2   
    17     9    11 1   
    18    11    33 1   
    19    11    34 1   
    20    11    35 1   
    21    12    13 1   
    22    12    14 1   
    23    12    36 1   
    24    14    15 2   
    25    14    16 1   
    26    16    17 1   
    27    16    25 1   
    28    17    18 1   
    29    17    37 1   
    30    17    38 1   
    31    18    19 1   
    32    18    39 1   
    33    18    40 1   
    34    19    20 ar  
    35    19    21 ar  
    36    20    22 ar  
    37    20    41 1   
    38    21    23 ar  
    39    21    42 1   
    40    22    24 ar  
    41    22    43 1   
    42    23    24 ar  
    43    23    44 1   
    44    24    45 1   
    45    25    26 1   
    46    25    46 1   
    47    25    47 1   
    48    26    27 1   
    49    26    48 1   
    50    26    49 1   
    51    27    50 1   
    52    27    51 1   
    53    27    52 1   
    54    28    53 1   
    55    28    54 1   
@<TRIPOS>SUBSTRUCTURE
     1 DPC         1 TEMP              0 ****  ****    0 ROOT
