@<TRIPOS>MOLECULE
DPC
   54    55     1     0     0
SMALL
No Charge or Current Charge


@<TRIPOS>ATOM
      1 C1          -2.7430    -2.1070    -4.3840 c          1 DPC       0.728200
      2 O1A         -2.8650    -2.1350    -5.6040 o          1 DPC      -0.693000
      3 O1B         -3.5070    -2.7110    -3.6380 o          1 DPC      -0.693000
      4 C2          -1.5980    -1.2870    -3.7710 ce         1 DPC       0.041900
      5 C3          -0.7080    -0.5790    -4.5210 c2         1 DPC      -0.391200
      6 C4           0.4270     0.2030    -3.9160 c6         1 DPC       0.212700
      7 C5           0.7280    -0.2840    -2.4690 c6         1 DPC       0.075700
      8 N5           1.7960     0.5290    -1.8400 ns         1 DPC      -0.511900
      9 C10          2.7230     0.0620    -0.9380 c          1 DPC       0.599100
     10 O10          2.7070    -1.0830    -0.5140 o          1 DPC      -0.583100
     11 C11          3.7760     1.0800    -0.5170 c3         1 DPC      -0.182100
     12 C6          -0.6420    -0.3370    -1.7170 c6         1 DPC       0.077300
     13 O6          -1.5230    -1.2890    -2.3790 os         1 DPC      -0.289100
     14 C7          -0.5690    -0.5920    -0.1730 c          1 DPC       0.612100
     15 O7          -1.1000    -1.5870     0.3120 o          1 DPC      -0.557100
     16 N8          -0.0010     0.3870     0.6910 n          1 DPC      -0.419800
     17 C81          0.2950     0.0020     2.0980 c3         1 DPC       0.102000
     18 C82         -0.8780     0.2280     3.0790 c3         1 DPC      -0.062100
     19 CG          -0.4900    -0.1140     4.5090 ca         1 DPC      -0.067300
     20 CD1          0.1030     0.8620     5.3350 ca         1 DPC      -0.107000
     21 CD2         -0.7090    -1.4090     5.0160 ca         1 DPC      -0.107000
     22 CE1          0.4690     0.5450     6.6550 ca         1 DPC      -0.115000
     23 CE2         -0.3430    -1.7260     6.3360 ca         1 DPC      -0.115000
     24 CZ           0.2460    -0.7480     7.1560 ca         1 DPC      -0.122000
     25 C9          -0.1650     1.8380     0.3760 c3         1 DPC       0.109000
     26 C91          0.6530     2.8350     1.2340 c3         1 DPC      -0.096400
     27 C92          0.5610     4.2830     0.7150 c3         1 DPC      -0.090100
     28 NE           1.5940     0.0870    -4.7910 n8         1 DPC      -0.975200
     29 H3          -0.7830    -0.5710    -5.6080 ha         1 DPC       0.208000
     30 H4           0.1550     1.2680    -3.8880 h1         1 DPC      -0.011300
     31 H5           1.0960    -1.3190    -2.5400 h1         1 DPC       0.129700
     32 HN5          1.8990     1.4930    -2.1320 hn         1 DPC       0.293500
     33 H111         4.3610     0.7460     0.3480 hc         1 DPC       0.050700
     34 H112         4.4350     1.2610    -1.3740 hc         1 DPC       0.050700
     35 H113         3.3160     2.0610    -0.3620 hc         1 DPC       0.050700
     36 H6          -1.1150     0.6480    -1.8250 h1         1 DPC       0.032700
     37 H811         0.5820    -1.0570     2.1290 h1         1 DPC       0.052700
     38 H812         1.1710     0.5610     2.4490 h1         1 DPC       0.052700
     39 H821        -1.2200     1.2680     3.0230 hc         1 DPC       0.063700
     40 H822        -1.7310    -0.3840     2.7620 hc         1 DPC       0.063700
     41 HD1          0.2810     1.8650     4.9540 ha         1 DPC       0.117500
     42 HD2         -1.1610    -2.1730     4.3860 ha         1 DPC       0.117500
     43 HE1          0.9260     1.3020     7.2880 ha         1 DPC       0.105000
     44 HE2         -0.5140    -2.7280     6.7220 ha         1 DPC       0.105000
     45 HZ           0.5290    -0.9930     8.1770 ha         1 DPC       0.102000
     46 H91         -1.2300     2.0880     0.4740 h1         1 DPC       0.049200
     47 H92          0.1050     2.0150    -0.6700 h1         1 DPC       0.049200
     48 H911         1.7060     2.5320     1.2460 hc         1 DPC       0.040200
     49 H912         0.3050     2.8190     2.2730 hc         1 DPC       0.040200
     50 H921         1.1490     4.9550     1.3510 hc         1 DPC       0.031033
     51 H922         0.9480     4.3530    -0.3090 hc         1 DPC       0.031033
     52 H923        -0.4790     4.6300     0.7170 hc         1 DPC       0.031033
     53 HNE1         1.3900     0.5770    -5.6670 hn         1 DPC       0.380000
     54 HNE2         2.3610     0.6260    -4.3770 hn         1 DPC       0.380000
@<TRIPOS>BOND
     1     1     2 1   
     2     1     3 1   
     3     1     4 1   
     4     4     5 2   
     5     4    13 1   
     6     5     6 1   
     7     5    29 1   
     8     6     7 1   
     9     6    28 1   
    10     6    30 1   
    11     7     8 1   
    12     7    12 1   
    13     7    31 1   
    14     8     9 1   
    15     8    32 1   
    16     9    10 2   
    17     9    11 1   
    18    11    33 1   
    19    11    34 1   
    20    11    35 1   
    21    12    13 1   
    22    12    14 1   
    23    12    36 1   
    24    14    15 2   
    25    14    16 1   
    26    16    17 1   
    27    16    25 1   
    28    17    18 1   
    29    17    37 1   
    30    17    38 1   
    31    18    19 1   
    32    18    39 1   
    33    18    40 1   
    34    19    20 ar  
    35    19    21 ar  
    36    20    22 ar  
    37    20    41 1   
    38    21    23 ar  
    39    21    42 1   
    40    22    24 ar  
    41    22    43 1   
    42    23    24 ar  
    43    23    44 1   
    44    24    45 1   
    45    25    26 1   
    46    25    46 1   
    47    25    47 1   
    48    26    27 1   
    49    26    48 1   
    50    26    49 1   
    51    27    50 1   
    52    27    51 1   
    53    27    52 1   
    54    28    53 1   
    55    28    54 1   
@<TRIPOS>SUBSTRUCTURE
     1 DPC         1 TEMP              0 ****  ****    0 ROOT
