@<TRIPOS>MOLECULE
DPD
   86    88     1     0     0
SMALL
No Charge or Current Charge


@<TRIPOS>ATOM
      1 C11         16.3140     6.4930    10.9890 ca         1 DPD      -0.073300
      2 C12         17.6330     5.9810    11.0060 ca         1 DPD      -0.102750
      3 C13         18.3640     5.8500     9.8130 ca         1 DPD      -0.111750
      4 C14         17.7880     6.2210     8.5880 ca         1 DPD      -0.117000
      5 C15         16.4760     6.7210     8.5570 ca         1 DPD      -0.111750
      6 C16         15.7450     6.8540     9.7500 ca         1 DPD      -0.102750
      7 C21         14.6370     5.3830    12.5060 ca         1 DPD      -0.073300
      8 C22         15.2610     4.1460    12.7650 ca         1 DPD      -0.102750
      9 C23         14.4920     2.9900    12.9780 ca         1 DPD      -0.111750
     10 C24         13.0910     3.0600    12.9390 ca         1 DPD      -0.117000
     11 C25         12.4590     4.2880    12.6830 ca         1 DPD      -0.111750
     12 C26         13.2290     5.4440    12.4650 ca         1 DPD      -0.102750
     13 C1          15.4720     6.6430    12.2660 c3         1 DPD       0.035900
     14 C2          16.2970     7.0480    13.5160 c3         1 DPD      -0.107400
     15 C3          15.4350     7.3110    14.7700 c3         1 DPD       0.156800
     16 N4          16.2900     7.7720    15.8760 n7         1 DPD      -0.866400
     17 C5          16.5710     9.2120    15.9330 c3         1 DPD       0.169800
     18 C6          17.8670     9.4440    16.7400 c3         1 DPD      -0.079400
     19 C7          19.1650     9.0270    15.9990 c3         1 DPD       0.168800
     20 N8          19.1630     7.6060    15.5800 n7         1 DPD      -0.886400
     21 C9          19.3170     6.5750    16.6250 c3         1 DPD       0.221800
     22 C19         20.7980     6.4600    17.0370 c3         1 DPD      -0.120100
     23 C31         18.7760     5.2410    16.1120 ca         1 DPD      -0.095300
     24 C32         19.1640     4.7280    14.8580 ca         1 DPD      -0.082000
     25 C33         18.6570     3.5080    14.3750 ca         1 DPD       0.068100
     26 C34         17.7530     2.7540    15.1850 ca         1 DPD       0.122100
     27 C35         17.3680     3.2770    16.4430 ca         1 DPD      -0.182000
     28 C36         17.8690     4.5070    16.8950 ca         1 DPD      -0.073000
     29 O3          19.0880     3.1480    13.1030 os         1 DPD      -0.370100
     30 C41         18.6120     2.0020    12.3740 c3         1 DPD       0.166600
     31 C42         19.1970     2.0600    10.9480 c3         1 DPD      -0.077400
     32 C43         20.7420     1.9930    10.8930 c3         1 DPD      -0.075400
     33 C44         21.2930     2.0300     9.4550 c3         1 DPD      -0.089100
     34 O4          17.2690     1.5280    14.7580 os         1 DPD      -0.351100
     35 C51         16.3410     0.7420    15.5230 c3         1 DPD       0.161600
     36 C52         16.0540    -0.5430    14.7220 c3         1 DPD      -0.084400
     37 C53         15.0330    -1.4700    15.4170 c3         1 DPD      -0.074400
     38 C54         14.7430    -2.7550    14.6180 c3         1 DPD      -0.088100
     39 H12         18.1020     5.6740    11.9360 ha         1 DPD       0.115250
     40 H13         19.3780     5.4570     9.8390 ha         1 DPD       0.112000
     41 H14         18.3540     6.1170     7.6650 ha         1 DPD       0.107000
     42 H15         16.0250     7.0050     7.6090 ha         1 DPD       0.112000
     43 H16         14.7280     7.2380     9.7100 ha         1 DPD       0.115250
     44 H22         16.3440     4.0800    12.7970 ha         1 DPD       0.115250
     45 H23         14.9840     2.0400    13.1690 ha         1 DPD       0.112000
     46 H24         12.4960     2.1640    13.1050 ha         1 DPD       0.107000
     47 H25         11.3730     4.3440    12.6520 ha         1 DPD       0.112000
     48 H26         12.7260     6.3880    12.2660 ha         1 DPD       0.115250
     49 H1          14.7840     7.4810    12.0960 hc         1 DPD       0.051700
     50 H22A        17.0160     6.2610    13.7640 hc         1 DPD       0.046700
     51 H21         16.8770     7.9470    13.2740 hc         1 DPD       0.046700
     52 H32A        14.6440     8.0410    14.5460 h1         1 DPD       0.050700
     53 H31         14.9450     6.3680    15.0500 h1         1 DPD       0.050700
     54 H4          17.2230     7.3430    15.7290 hn         1 DPD       0.432000
     55 H52         16.7080     9.6310    14.9270 h1         1 DPD       0.024700
     56 H51         15.7350     9.7430    16.4080 h1         1 DPD       0.024700
     57 H62         17.9410    10.5150    16.9650 hc         1 DPD       0.046700
     58 H61         17.8020     8.9350    17.7080 hc         1 DPD       0.046700
     59 H72         19.2550     9.6610    15.1060 h1         1 DPD       0.028700
     60 H71         20.0330     9.2470    16.6350 h1         1 DPD       0.028700
     61 H8          19.9210     7.4680    14.9020 hn         1 DPD       0.414000
     62 H9          18.7370     6.8500    17.5170 h1         1 DPD       0.066700
     63 H193        20.9200     5.6690    17.7870 hc         1 DPD       0.039700
     64 H192        21.4300     6.2130    16.1760 hc         1 DPD       0.039700
     65 H191        21.1590     7.3960    17.4760 hc         1 DPD       0.039700
     66 H32         19.8570     5.2870    14.2370 ha         1 DPD       0.126000
     67 H35         16.6780     2.7430    17.0890 ha         1 DPD       0.118000
     68 H36         17.5540     4.8880    17.8640 ha         1 DPD       0.113000
     69 H412        18.9230     1.0690    12.8620 h1         1 DPD       0.033200
     70 H411        17.5170     2.0160    12.2990 h1         1 DPD       0.033200
     71 H422        18.7830     1.2240    10.3720 hc         1 DPD       0.048200
     72 H421        18.8510     2.9780    10.4600 hc         1 DPD       0.048200
     73 H432        21.1680     2.8330    11.4550 hc         1 DPD       0.043200
     74 H431        21.0840     1.0740    11.3840 hc         1 DPD       0.043200
     75 H443        22.3890     1.9820     9.4640 hc         1 DPD       0.031367
     76 H442        20.9180     1.1810     8.8720 hc         1 DPD       0.031367
     77 H441        20.9950     2.9570     8.9490 hc         1 DPD       0.031367
     78 H512        16.7660     0.4760    16.4990 h1         1 DPD       0.036700
     79 H511        15.4040     1.2930    15.6810 h1         1 DPD       0.036700
     80 H522        15.6770    -0.2710    13.7290 hc         1 DPD       0.054700
     81 H521        16.9950    -1.0870    14.5720 hc         1 DPD       0.054700
     82 H532        15.4090    -1.7450    16.4110 hc         1 DPD       0.038700
     83 H531        14.0930    -0.9250    15.5700 hc         1 DPD       0.038700
     84 H543        14.0150    -3.3790    15.1490 hc         1 DPD       0.034700
     85 H542        14.3310    -2.5130    13.6300 hc         1 DPD       0.034700
     86 H541        15.6590    -3.3400    14.4770 hc         1 DPD       0.034700
@<TRIPOS>BOND
     1     1     2 ar  
     2     1     6 ar  
     3     1    13 1   
     4     2     3 ar  
     5     2    39 1   
     6     3     4 ar  
     7     3    40 1   
     8     4     5 ar  
     9     4    41 1   
    10     5     6 ar  
    11     5    42 1   
    12     6    43 1   
    13     7     8 ar  
    14     7    12 ar  
    15     7    13 1   
    16     8     9 ar  
    17     8    44 1   
    18     9    10 ar  
    19     9    45 1   
    20    10    11 ar  
    21    10    46 1   
    22    11    12 ar  
    23    11    47 1   
    24    12    48 1   
    25    13    14 1   
    26    13    49 1   
    27    14    15 1   
    28    14    50 1   
    29    14    51 1   
    30    15    16 1   
    31    15    52 1   
    32    15    53 1   
    33    16    17 1   
    34    16    54 1   
    35    17    18 1   
    36    17    55 1   
    37    17    56 1   
    38    18    19 1   
    39    18    57 1   
    40    18    58 1   
    41    19    20 1   
    42    19    59 1   
    43    19    60 1   
    44    20    21 1   
    45    20    61 1   
    46    21    22 1   
    47    21    23 1   
    48    21    62 1   
    49    22    63 1   
    50    22    64 1   
    51    22    65 1   
    52    23    24 ar  
    53    23    28 ar  
    54    24    25 ar  
    55    24    66 1   
    56    25    26 ar  
    57    25    29 1   
    58    26    27 ar  
    59    26    34 1   
    60    27    28 ar  
    61    27    67 1   
    62    28    68 1   
    63    29    30 1   
    64    30    31 1   
    65    30    69 1   
    66    30    70 1   
    67    31    32 1   
    68    31    71 1   
    69    31    72 1   
    70    32    33 1   
    71    32    73 1   
    72    32    74 1   
    73    33    75 1   
    74    33    76 1   
    75    33    77 1   
    76    34    35 1   
    77    35    36 1   
    78    35    78 1   
    79    35    79 1   
    80    36    37 1   
    81    36    80 1   
    82    36    81 1   
    83    37    38 1   
    84    37    82 1   
    85    37    83 1   
    86    38    84 1   
    87    38    85 1   
    88    38    86 1   
@<TRIPOS>SUBSTRUCTURE
     1 DPD         1 TEMP              0 ****  ****    0 ROOT
