@<TRIPOS>MOLECULE
DPD
   86    88     1     0     0
SMALL
abcg2


@<TRIPOS>ATOM
      1 C11         16.3420     6.5980    10.5330 ca         1 DPD      -0.073300
      2 C12         17.6810     6.2220    10.4130 ca         1 DPD      -0.102750
      3 C13         18.2930     6.1450     9.1660 ca         1 DPD      -0.111750
      4 C14         17.5770     6.4480     8.0120 ca         1 DPD      -0.117000
      5 C15         16.2430     6.8310     8.1180 ca         1 DPD      -0.111750
      6 C16         15.6360     6.9020     9.3670 ca         1 DPD      -0.102750
      7 C21         14.9710     5.2850    12.1470 ca         1 DPD      -0.073300
      8 C22         15.7510     4.1530    12.3850 ca         1 DPD      -0.102750
      9 C23         15.1610     2.9240    12.6460 ca         1 DPD      -0.111750
     10 C24         13.7740     2.8020    12.6720 ca         1 DPD      -0.117000
     11 C25         12.9860     3.9220    12.4320 ca         1 DPD      -0.111750
     12 C26         13.5830     5.1540    12.1720 ca         1 DPD      -0.102750
     13 C1          15.6190     6.6340    11.8690 c3         1 DPD       0.035900
     14 C2          16.5100     7.0950    13.0340 c3         1 DPD      -0.107400
     15 C3          15.7390     7.2460    14.3480 c3         1 DPD       0.156800
     16 N4          16.5600     7.5940    15.5060 n7         1 DPD      -0.866400
     17 C5          17.0450     8.9760    15.5300 c3         1 DPD       0.169800
     18 C6          17.9860     9.2090    16.7110 c3         1 DPD      -0.079400
     19 C7          19.4280     8.7490    16.4740 c3         1 DPD       0.168800
     20 N8          19.5300     7.3580    16.0280 n7         1 DPD      -0.886400
     21 C9          19.3810     6.3440    17.0800 c3         1 DPD       0.221800
     22 C19         20.6960     6.0670    17.8210 c3         1 DPD      -0.120100
     23 C31         18.7880     5.0600    16.5270 ca         1 DPD      -0.095300
     24 C32         19.0470     4.6390    15.2220 ca         1 DPD      -0.082000
     25 C33         18.5120     3.4630    14.7210 ca         1 DPD       0.068100
     26 C34         17.6930     2.6570    15.5310 ca         1 DPD       0.122100
     27 C35         17.4280     3.0720    16.8340 ca         1 DPD      -0.182000
     28 C36         17.9730     4.2590    17.3180 ca         1 DPD      -0.073000
     29 O3          18.7120     3.1410    13.4020 os         1 DPD      -0.370100
     30 C41         19.6840     2.1110    13.1410 c3         1 DPD       0.166600
     31 C42         19.5570     1.6990    11.6900 c3         1 DPD      -0.077400
     32 C43         19.8070     2.8350    10.7000 c3         1 DPD      -0.075400
     33 C44         19.6600     2.3930     9.2470 c3         1 DPD      -0.089100
     34 O4          17.2030     1.5220    14.9650 os         1 DPD      -0.351100
     35 C51         16.1790     0.8020    15.6630 c3         1 DPD       0.161600
     36 C52         15.7270    -0.3450    14.7850 c3         1 DPD      -0.084400
     37 C53         14.6040    -1.1540    15.4310 c3         1 DPD      -0.074400
     38 C54         14.1300    -2.3040    14.5470 c3         1 DPD      -0.088100
     39 H12         18.2580     5.9810    11.2960 ha         1 DPD       0.115250
     40 H13         19.3310     5.8430     9.0970 ha         1 DPD       0.112000
     41 H14         18.0540     6.3880     7.0420 ha         1 DPD       0.107000
     42 H15         15.6760     7.0750     7.2280 ha         1 DPD       0.112000
     43 H16         14.5950     7.1960     9.4420 ha         1 DPD       0.115250
     44 H22         16.8300     4.2210    12.3780 ha         1 DPD       0.115250
     45 H23         15.7900     2.0670    12.8440 ha         1 DPD       0.112000
     46 H24         13.3150     1.8430    12.8800 ha         1 DPD       0.107000
     47 H25         11.9050     3.8420    12.4510 ha         1 DPD       0.112000
     48 H26         12.9640     6.0250    11.9930 ha         1 DPD       0.115250
     49 H1          14.8070     7.3590    11.7690 hc         1 DPD       0.051700
     50 H22A        17.3170     6.3770    13.1960 hc         1 DPD       0.046700
     51 H21         16.9790     8.0430    12.7580 hc         1 DPD       0.046700
     52 H32A        14.9560     8.0030    14.2360 h1         1 DPD       0.050700
     53 H31         15.2320     6.3030    14.5660 h1         1 DPD       0.050700
     54 H4          17.3770     6.9920    15.5130 hn         1 DPD       0.432000
     55 H52         17.5620     9.2640    14.6010 h1         1 DPD       0.024700
     56 H51         16.1730     9.6320    15.6190 h1         1 DPD       0.024700
     57 H62         18.0210    10.2770    16.9410 hc         1 DPD       0.046700
     58 H61         17.5660     8.7160    17.5930 hc         1 DPD       0.046700
     59 H72         19.8620     9.3640    15.6830 h1         1 DPD       0.028700
     60 H71         20.0160     8.9430    17.3850 h1         1 DPD       0.028700
     61 H8          20.4130     7.2230    15.5510 hn         1 DPD       0.414000
     62 H9          18.6630     6.7380    17.8020 h1         1 DPD       0.066700
     63 H193        20.5460     5.3580    18.6380 hc         1 DPD       0.039700
     64 H192        21.4300     5.6420    17.1310 hc         1 DPD       0.039700
     65 H191        21.1030     6.9900    18.2380 hc         1 DPD       0.039700
     66 H32         19.6500     5.2410    14.5550 ha         1 DPD       0.126000
     67 H35         16.7870     2.4830    17.4740 ha         1 DPD       0.118000
     68 H36         17.7420     4.5670    18.3320 ha         1 DPD       0.113000
     69 H412        20.6830     2.5110    13.3540 h1         1 DPD       0.033200
     70 H411        19.5020     1.2620    13.8040 h1         1 DPD       0.033200
     71 H422        20.2680     0.8860    11.5100 hc         1 DPD       0.048200
     72 H421        18.5560     1.2840    11.5310 hc         1 DPD       0.048200
     73 H432        19.1080     3.6480    10.9030 hc         1 DPD       0.043200
     74 H431        20.8110     3.2400    10.8650 hc         1 DPD       0.043200
     75 H443        19.8390     3.2240     8.5610 hc         1 DPD       0.031367
     76 H442        20.3680     1.5960     9.0030 hc         1 DPD       0.031367
     77 H441        18.6530     2.0140     9.0560 hc         1 DPD       0.031367
     78 H512        16.5720     0.4280    16.6140 h1         1 DPD       0.036700
     79 H511        15.3480     1.4810    15.8780 h1         1 DPD       0.036700
     80 H522        15.3850     0.0530    13.8250 hc         1 DPD       0.054700
     81 H521        16.5810    -0.9960    14.5770 hc         1 DPD       0.054700
     82 H532        14.9460    -1.5470    16.3940 hc         1 DPD       0.038700
     83 H531        13.7610    -0.4900    15.6490 hc         1 DPD       0.038700
     84 H543        13.3280    -2.8690    15.0270 hc         1 DPD       0.034700
     85 H542        13.7530    -1.9320    13.5910 hc         1 DPD       0.034700
     86 H541        14.9480    -2.9970    14.3350 hc         1 DPD       0.034700
@<TRIPOS>BOND
     1     1     2 ar  
     2     1     6 ar  
     3     1    13 1   
     4     2     3 ar  
     5     2    39 1   
     6     3     4 ar  
     7     3    40 1   
     8     4     5 ar  
     9     4    41 1   
    10     5     6 ar  
    11     5    42 1   
    12     6    43 1   
    13     7     8 ar  
    14     7    12 ar  
    15     7    13 1   
    16     8     9 ar  
    17     8    44 1   
    18     9    10 ar  
    19     9    45 1   
    20    10    11 ar  
    21    10    46 1   
    22    11    12 ar  
    23    11    47 1   
    24    12    48 1   
    25    13    14 1   
    26    13    49 1   
    27    14    15 1   
    28    14    50 1   
    29    14    51 1   
    30    15    16 1   
    31    15    52 1   
    32    15    53 1   
    33    16    17 1   
    34    16    54 1   
    35    17    18 1   
    36    17    55 1   
    37    17    56 1   
    38    18    19 1   
    39    18    57 1   
    40    18    58 1   
    41    19    20 1   
    42    19    59 1   
    43    19    60 1   
    44    20    21 1   
    45    20    61 1   
    46    21    22 1   
    47    21    23 1   
    48    21    62 1   
    49    22    63 1   
    50    22    64 1   
    51    22    65 1   
    52    23    24 ar  
    53    23    28 ar  
    54    24    25 ar  
    55    24    66 1   
    56    25    26 ar  
    57    25    29 1   
    58    26    27 ar  
    59    26    34 1   
    60    27    28 ar  
    61    27    67 1   
    62    28    68 1   
    63    29    30 1   
    64    30    31 1   
    65    30    69 1   
    66    30    70 1   
    67    31    32 1   
    68    31    71 1   
    69    31    72 1   
    70    32    33 1   
    71    32    73 1   
    72    32    74 1   
    73    33    75 1   
    74    33    76 1   
    75    33    77 1   
    76    34    35 1   
    77    35    36 1   
    78    35    78 1   
    79    35    79 1   
    80    36    37 1   
    81    36    80 1   
    82    36    81 1   
    83    37    38 1   
    84    37    82 1   
    85    37    83 1   
    86    38    84 1   
    87    38    85 1   
    88    38    86 1   
@<TRIPOS>SUBSTRUCTURE
     1 DPD         1 TEMP              0 ****  ****    0 ROOT
