@<TRIPOS>MOLECULE
DPE
   42    41     1     0     0
SMALL
abcg2


@<TRIPOS>ATOM
      1 C1          10.1840    53.9030    16.4440 c3         1 DPE      -0.460400
      2 C2           9.4710    53.2510    15.2550 c3         1 DPE      -0.045400
      3 C3          10.2820    53.3290    13.9560 c3         1 DPE      -0.068400
      4 C4          11.6660    52.6780    14.0230 c3         1 DPE      -0.073400
      5 C5          11.6380    51.1920    14.3840 c3         1 DPE      -0.078400
      6 C6          13.0170    50.5310    14.4090 c3         1 DPE      -0.074400
      7 C7          13.9250    51.0390    15.5320 c3         1 DPE      -0.075400
      8 C8          15.2340    50.2600    15.6770 c3         1 DPE      -0.074400
      9 C9          16.1780    50.4000    14.4820 c3         1 DPE      -0.075400
     10 C10         17.5410    49.7330    14.6830 c3         1 DPE      -0.075400
     11 C11         17.4750    48.2110    14.8120 c3         1 DPE      -0.089100
     12 P            9.2400    53.7780    17.9670 p5         1 DPE       1.138800
     13 O1P          9.0230    52.3920    18.4550 o          1 DPE      -0.520000
     14 O2P          9.9930    54.6560    19.0750 os         1 DPE      -0.581400
     15 CM          10.1280    56.0850    18.9270 c3         1 DPE       0.190900
     16 H11         11.1460    53.4250    16.6490 hc         1 DPE       0.078200
     17 H12         10.3790    54.9610    16.2430 hc         1 DPE       0.078200
     18 H21          9.2510    52.2090    15.4940 hc         1 DPE       0.046700
     19 H22          8.5070    53.7430    15.0990 hc         1 DPE       0.046700
     20 H31          9.6990    52.8530    13.1600 hc         1 DPE       0.038700
     21 H32         10.3960    54.3800    13.6740 hc         1 DPE       0.038700
     22 H41         12.1540    52.7950    13.0500 hc         1 DPE       0.037200
     23 H42         12.2900    53.2210    14.7380 hc         1 DPE       0.037200
     24 H51         11.1690    51.0570    15.3640 hc         1 DPE       0.041700
     25 H52         10.9990    50.6700    13.6630 hc         1 DPE       0.041700
     26 H61         12.8910    49.4500    14.5290 hc         1 DPE       0.038700
     27 H62         13.5040    50.6780    13.4400 hc         1 DPE       0.038700
     28 H71         14.1560    52.0970    15.3760 hc         1 DPE       0.036700
     29 H72         13.3710    50.9810    16.4760 hc         1 DPE       0.036700
     30 H81         15.7560    50.6050    16.5760 hc         1 DPE       0.038700
     31 H82         14.9990    49.2030    15.8430 hc         1 DPE       0.038700
     32 H91         15.7090    49.9830    13.5850 hc         1 DPE       0.036200
     33 H92         16.3300    51.4670    14.2820 hc         1 DPE       0.036200
     34 H101        18.1880    49.9890    13.8380 hc         1 DPE       0.035700
     35 H102        18.0190    50.1540    15.5740 hc         1 DPE       0.035700
     36 H111        18.4750    47.7790    14.8890 hc         1 DPE       0.031367
     37 H112        16.9140    47.9050    15.6980 hc         1 DPE       0.031367
     38 H113        16.9840    47.7690    13.9400 hc         1 DPE       0.031367
     39 HM1         10.3950    56.4740    19.9070 h1         1 DPE       0.042033
     40 HM2         10.9150    56.3180    18.2100 h1         1 DPE       0.042033
     41 HM3          9.1860    56.5290    18.6010 h1         1 DPE       0.042033
     42 HP1          8.0480    54.4950    17.7340 hp         1 DPE      -0.118400
@<TRIPOS>BOND
     1     1     2 1   
     2     1    12 1   
     3     1    16 1   
     4     1    17 1   
     5     2     3 1   
     6     2    18 1   
     7     2    19 1   
     8     3     4 1   
     9     3    20 1   
    10     3    21 1   
    11     4     5 1   
    12     4    22 1   
    13     4    23 1   
    14     5     6 1   
    15     5    24 1   
    16     5    25 1   
    17     6     7 1   
    18     6    26 1   
    19     6    27 1   
    20     7     8 1   
    21     7    28 1   
    22     7    29 1   
    23     8     9 1   
    24     8    30 1   
    25     8    31 1   
    26     9    10 1   
    27     9    32 1   
    28     9    33 1   
    29    10    11 1   
    30    10    34 1   
    31    10    35 1   
    32    11    36 1   
    33    11    37 1   
    34    11    38 1   
    35    12    13 2   
    36    12    14 1   
    37    12    42 1   
    38    14    15 1   
    39    15    39 1   
    40    15    40 1   
    41    15    41 1   
@<TRIPOS>SUBSTRUCTURE
     1 DPE         1 TEMP              0 ****  ****    0 ROOT
