@<TRIPOS>MOLECULE
DPE
   42    41     1     0     0
SMALL
No Charge or Current Charge


@<TRIPOS>ATOM
      1 C1           9.9450    53.9610    16.4600 c3         1 DPE      -0.460400
      2 C2           9.3510    53.2410    15.2220 c3         1 DPE      -0.045400
      3 C3          10.2540    53.3000    13.9650 c3         1 DPE      -0.068400
      4 C4          11.6600    52.6660    14.1120 c3         1 DPE      -0.073400
      5 C5          11.6470    51.1560    14.4560 c3         1 DPE      -0.078400
      6 C6          13.0430    50.4910    14.4570 c3         1 DPE      -0.074400
      7 C7          13.9980    51.0180    15.5580 c3         1 DPE      -0.075400
      8 C8          15.3330    50.2430    15.6670 c3         1 DPE      -0.074400
      9 C9          16.2460    50.3680    14.4210 c3         1 DPE      -0.075400
     10 C10         17.6420    49.7240    14.5900 c3         1 DPE      -0.075400
     11 C11         17.6190    48.1910    14.7690 c3         1 DPE      -0.089100
     12 P            8.8300    54.0140    17.9290 p5         1 DPE       1.138800
     13 O1P          8.2140    52.6940    18.2540 o          1 DPE      -0.520000
     14 O2P          9.8270    54.5940    19.0680 os         1 DPE      -0.581400
     15 CM          10.2780    55.9560    18.9960 c3         1 DPE       0.190900
     16 H11         10.8590    53.4600    16.7970 hc         1 DPE       0.078200
     17 H12         10.1930    54.9980    16.2110 hc         1 DPE       0.078200
     18 H21          9.1330    52.1950    15.4700 hc         1 DPE       0.046700
     19 H22          8.3870    53.7020    14.9710 hc         1 DPE       0.046700
     20 H31          9.7310    52.8080    13.1360 hc         1 DPE       0.038700
     21 H32         10.3750    54.3500    13.6690 hc         1 DPE       0.038700
     22 H41         12.1990    52.8060    13.1670 hc         1 DPE       0.037200
     23 H42         12.2250    53.2170    14.8720 hc         1 DPE       0.037200
     24 H51         11.1830    51.0040    15.4390 hc         1 DPE       0.041700
     25 H52         11.0150    50.6330    13.7270 hc         1 DPE       0.041700
     26 H61         12.9110    49.4100    14.5930 hc         1 DPE       0.038700
     27 H62         13.5020    50.6290    13.4710 hc         1 DPE       0.038700
     28 H71         14.2180    52.0770    15.3820 hc         1 DPE       0.036700
     29 H72         13.4860    50.9600    16.5270 hc         1 DPE       0.036700
     30 H81         15.8780    50.6170    16.5420 hc         1 DPE       0.038700
     31 H82         15.1140    49.1860    15.8620 hc         1 DPE       0.038700
     32 H91         15.7510    49.9160    13.5530 hc         1 DPE       0.036200
     33 H92         16.3810    51.4310    14.1880 hc         1 DPE       0.036200
     34 H101        18.2440    49.9610    13.7040 hc         1 DPE       0.035700
     35 H102        18.1540    50.1800    15.4460 hc         1 DPE       0.035700
     36 H111        18.6420    47.7980    14.8000 hc         1 DPE       0.031367
     37 H112        17.1220    47.9100    15.7040 hc         1 DPE       0.031367
     38 H113        17.0930    47.7100    13.9350 hc         1 DPE       0.031367
     39 HM1         10.6550    56.2840    19.9720 h1         1 DPE       0.042033
     40 HM2         11.0930    56.0590    18.2670 h1         1 DPE       0.042033
     41 HM3          9.4630    56.6310    18.7030 h1         1 DPE       0.042033
     42 HP1          7.9280    55.0810    17.6840 hp         1 DPE      -0.118400
@<TRIPOS>BOND
     1     1     2 1   
     2     1    12 1   
     3     1    16 1   
     4     1    17 1   
     5     2     3 1   
     6     2    18 1   
     7     2    19 1   
     8     3     4 1   
     9     3    20 1   
    10     3    21 1   
    11     4     5 1   
    12     4    22 1   
    13     4    23 1   
    14     5     6 1   
    15     5    24 1   
    16     5    25 1   
    17     6     7 1   
    18     6    26 1   
    19     6    27 1   
    20     7     8 1   
    21     7    28 1   
    22     7    29 1   
    23     8     9 1   
    24     8    30 1   
    25     8    31 1   
    26     9    10 1   
    27     9    32 1   
    28     9    33 1   
    29    10    11 1   
    30    10    34 1   
    31    10    35 1   
    32    11    36 1   
    33    11    37 1   
    34    11    38 1   
    35    12    13 2   
    36    12    14 1   
    37    12    42 1   
    38    14    15 1   
    39    15    39 1   
    40    15    40 1   
    41    15    41 1   
@<TRIPOS>SUBSTRUCTURE
     1 DPE         1 TEMP              0 ****  ****    0 ROOT
