@<TRIPOS>MOLECULE
DPF
   19    18     1     0     0
SMALL
bcc


@<TRIPOS>ATOM
      1 O4           0.0030    -1.6090     0.8770 o          1 DPF      -0.836000
      2 P1           0.0160    -0.5830    -0.2160 p5         1 DPF       1.395800
      3 O2           0.0180    -1.0340    -1.6460 o          1 DPF      -0.836000
      4 O3          -1.1680     0.5260     0.0280 os         1 DPF      -0.566200
      5 C1          -2.5110     0.0650    -0.0150 c3         1 DPF       0.195400
      6 C4          -3.4460     1.2440     0.1370 c3         1 DPF      -0.088100
      7 O1           1.2160     0.5070     0.0360 os         1 DPF      -0.566200
      8 C2           2.5510     0.0260    -0.0120 c3         1 DPF       0.195400
      9 C3           3.5040     1.1930     0.1180 c3         1 DPF      -0.088100
     10 H41         -3.2900     1.7580     1.0860 hc         1 DPF       0.021033
     11 H42         -3.3120     1.9630    -0.6710 hc         1 DPF       0.021033
     12 H43         -4.4790     0.8990     0.1100 hc         1 DPF       0.021033
     13 H11         -2.7130    -0.4440    -0.9640 h1         1 DPF       0.016450
     14 H12         -2.6920    -0.6610     0.7850 h1         1 DPF       0.016450
     15 H21          2.7280    -0.6930     0.7950 h1         1 DPF       0.016450
     16 H22          2.7380    -0.4970    -0.9560 h1         1 DPF       0.016450
     17 H31          3.3760     1.9030    -0.6990 hc         1 DPF       0.021033
     18 H32          3.3620     1.7230     1.0610 hc         1 DPF       0.021033
     19 H33          4.5320     0.8320     0.0900 hc         1 DPF       0.021033
@<TRIPOS>BOND
     1     1     2 1   
     2     2     3 1   
     3     2     4 1   
     4     2     7 1   
     5     4     5 1   
     6     5     6 1   
     7     5    13 1   
     8     5    14 1   
     9     6    10 1   
    10     6    11 1   
    11     6    12 1   
    12     7     8 1   
    13     8     9 1   
    14     8    15 1   
    15     8    16 1   
    16     9    17 1   
    17     9    18 1   
    18     9    19 1   
@<TRIPOS>SUBSTRUCTURE
     1 DPF         1 TEMP              0 ****  ****    0 ROOT
