@<TRIPOS>MOLECULE
DPF
   19    18     1     0     0
SMALL
No Charge or Current Charge


@<TRIPOS>ATOM
      1 O4          -0.0960    -0.1920    -1.6130 o          1 DPF      -0.836000
      2 P1           0.0190     1.2290    -1.1710 p5         1 DPF       1.395800
      3 O2           0.0190     2.1600    -2.3390 o          1 DPF      -0.836000
      4 O3          -1.1320     1.6630    -0.1230 os         1 DPF      -0.589400
      5 C1          -1.7300     0.7470     0.8040 c3         1 DPF       0.218600
      6 C4          -2.8920     0.0040     0.1130 c3         1 DPF      -0.088100
      7 O1           1.3160     1.5050    -0.2470 os         1 DPF      -0.589400
      8 C2           1.8810     0.5130     0.6210 c3         1 DPF       0.218600
      9 C3           2.8620    -0.3690    -0.1790 c3         1 DPF      -0.088100
     10 H41         -3.6180     0.7180    -0.2960 hc         1 DPF       0.021033
     11 H42         -2.5380    -0.6390    -0.6990 hc         1 DPF       0.021033
     12 H43         -3.4130    -0.6310     0.8390 hc         1 DPF       0.021033
     13 H11         -1.0030     0.0140     1.1740 h1         1 DPF       0.016450
     14 H12         -2.1210     1.2960     1.6700 h1         1 DPF       0.016450
     15 H21          2.4270     1.0020     1.4380 h1         1 DPF       0.016450
     16 H22          1.1070    -0.1210     1.0680 h1         1 DPF       0.016450
     17 H31          2.3470    -0.9570    -0.9460 hc         1 DPF       0.021033
     18 H32          3.6280     0.2470    -0.6650 hc         1 DPF       0.021033
     19 H33          3.3680    -1.0700     0.4950 hc         1 DPF       0.021033
@<TRIPOS>BOND
     1     1     2 1   
     2     2     3 1   
     3     2     4 1   
     4     2     7 1   
     5     4     5 1   
     6     5     6 1   
     7     5    13 1   
     8     5    14 1   
     9     6    10 1   
    10     6    11 1   
    11     6    12 1   
    12     7     8 1   
    13     8     9 1   
    14     8    15 1   
    15     8    16 1   
    16     9    17 1   
    17     9    18 1   
    18     9    19 1   
@<TRIPOS>SUBSTRUCTURE
     1 DPF         1 TEMP              0 ****  ****    0 ROOT
