@<TRIPOS>MOLECULE
DPH
   23    23     1     0     0
SMALL
No Charge or Current Charge


@<TRIPOS>ATOM
      1 CM           1.6320     0.6110     1.2050 c3         1 DPH      -0.063100
      2 CA           0.1130     0.3500     1.3550 c3         1 DPH      -0.189700
      3 CB          -0.4040    -0.7450     0.3830 c3         1 DPH      -0.024100
      4 CG          -0.2330    -0.3800    -1.0880 ca         1 DPH      -0.039300
      5 CD1          0.7610    -1.0030    -1.8690 ca         1 DPH      -0.116500
      6 CD2         -1.0700     0.5860    -1.6810 ca         1 DPH      -0.116500
      7 CE1          0.9170    -0.6640    -3.2240 ca         1 DPH      -0.119500
      8 CE2         -0.9150     0.9250    -3.0370 ca         1 DPH      -0.119500
      9 CZ           0.0790     0.3000    -3.8080 ca         1 DPH      -0.141000
     10 C           -0.2540     0.0080     2.8190 c          1 DPH       0.719000
     11 O            0.2060    -1.0090     3.3180 o          1 DPH      -0.736000
     12 OXT         -0.9990     0.7700     3.4170 o          1 DPH      -0.736000
     13 HM1          1.9610     1.3770     1.9180 hc         1 DPH       0.014367
     14 HM2          2.2090    -0.3030     1.3920 hc         1 DPH       0.014367
     15 HM3          1.8710     0.9670     0.1960 hc         1 DPH       0.014367
     16 HA          -0.4000     1.2860     1.0990 hc         1 DPH       0.027700
     17 HB1          0.1040    -1.6930     0.6020 hc         1 DPH       0.054200
     18 HB2         -1.4670    -0.9240     0.5880 hc         1 DPH       0.054200
     19 HD1          1.4170    -1.7490    -1.4240 ha         1 DPH       0.112000
     20 HD2         -1.8420     1.0730    -1.0900 ha         1 DPH       0.112000
     21 HE1          1.6870    -1.1480    -3.8200 ha         1 DPH       0.093500
     22 HE2         -1.5650     1.6710    -3.4880 ha         1 DPH       0.093500
     23 HZ           0.1990     0.5630    -4.8570 ha         1 DPH       0.092000
@<TRIPOS>BOND
     1     1     2 1   
     2     1    13 1   
     3     1    14 1   
     4     1    15 1   
     5     2     3 1   
     6     2    10 1   
     7     2    16 1   
     8     3     4 1   
     9     3    17 1   
    10     3    18 1   
    11     4     5 ar  
    12     4     6 ar  
    13     5     7 ar  
    14     5    19 1   
    15     6     8 ar  
    16     6    20 1   
    17     7     9 ar  
    18     7    21 1   
    19     8     9 ar  
    20     8    22 1   
    21     9    23 1   
    22    10    11 1   
    23    10    12 1   
@<TRIPOS>SUBSTRUCTURE
     1 DPH         1 TEMP              0 ****  ****    0 ROOT
