@<TRIPOS>MOLECULE
DPH
   23    23     1     0     0
SMALL
bcc


@<TRIPOS>ATOM
      1 CM           1.5840     0.6250     1.1900 c3         1 DPH      -0.063100
      2 CA           0.0910     0.3350     1.3240 c3         1 DPH      -0.189700
      3 CB          -0.3550    -0.7810     0.3730 c3         1 DPH      -0.024100
      4 CG          -0.2040    -0.4170    -1.0780 ca         1 DPH      -0.039300
      5 CD1          0.8500    -0.9030    -1.8490 ca         1 DPH      -0.134500
      6 CD2         -1.1190     0.4430    -1.6860 ca         1 DPH      -0.134500
      7 CE1          0.9890    -0.5410    -3.1840 ca         1 DPH      -0.137500
      8 CE2         -0.9860     0.8090    -3.0180 ca         1 DPH      -0.137500
      9 CZ           0.0720     0.3180    -3.7740 ca         1 DPH      -0.159000
     10 C           -0.2760     0.0480     2.8000 c          1 DPH       0.929600
     11 O           -0.9120    -0.9940     3.0550 o          1 DPH      -0.841300
     12 OXT          0.0940     0.9030     3.6310 o          1 DPH      -0.841300
     13 HM1          1.8830     1.4460     1.8410 hc         1 DPH       0.014367
     14 HM2          2.1780    -0.2510     1.4630 hc         1 DPH       0.014367
     15 HM3          1.8520     0.8950     0.1680 hc         1 DPH       0.014367
     16 HA          -0.4480     1.2500     1.0400 hc         1 DPH       0.027700
     17 HB1          0.2130    -1.6900     0.5890 hc         1 DPH       0.054200
     18 HB2         -1.4020    -1.0180     0.5740 hc         1 DPH       0.054200
     19 HD1          1.5710    -1.5760    -1.4000 ha         1 DPH       0.130000
     20 HD2         -1.9500     0.8300    -1.1070 ha         1 DPH       0.130000
     21 HE1          1.8150    -0.9350    -3.7640 ha         1 DPH       0.111500
     22 HE2         -1.7110     1.4750    -3.4690 ha         1 DPH       0.111500
     23 HZ           0.1780     0.6000    -4.8140 ha         1 DPH       0.110000
@<TRIPOS>BOND
     1     1     2 1   
     2     1    13 1   
     3     1    14 1   
     4     1    15 1   
     5     2     3 1   
     6     2    10 1   
     7     2    16 1   
     8     3     4 1   
     9     3    17 1   
    10     3    18 1   
    11     4     5 ar  
    12     4     6 ar  
    13     5     7 ar  
    14     5    19 1   
    15     6     8 ar  
    16     6    20 1   
    17     7     9 ar  
    18     7    21 1   
    19     8     9 ar  
    20     8    22 1   
    21     9    23 1   
    22    10    11 1   
    23    10    12 1   
@<TRIPOS>SUBSTRUCTURE
     1 DPH         1 TEMP              0 ****  ****    0 ROOT
