@<TRIPOS>MOLECULE
DPI
  195   205     1     0     0
SMALL
No Charge or Current Charge


@<TRIPOS>ATOM
      1 C1           0.8160    -0.0770     2.7840 c3         1 DPI       0.141100
      2 N2           1.3220     0.4480     1.5000 n7         1 DPI      -0.852400
      3 C3           2.7870     0.2480     1.2550 c3         1 DPI       0.106500
      4 C4           3.1960    -1.2650     1.1530 c          1 DPI       0.569100
      5 O5           2.6590    -2.0560     0.3860 o          1 DPI      -0.592100
      6 C6           3.2300     1.0200    -0.0190 c3         1 DPI      -0.067400
      7 C7           3.0240     2.5650     0.0050 c3         1 DPI      -0.054700
      8 C8           3.8040     3.2670     1.1440 c3         1 DPI      -0.090100
      9 C9           3.3850     3.1840    -1.3640 c3         1 DPI      -0.090100
     10 Cl1          8.7990    -2.3860     6.4740 cl         1 DPI      -0.171000
     11 N10          4.1940    -1.6560     2.0240 ns         1 DPI      -0.509900
     12 C11          4.6310    -3.0670     2.2580 c3         1 DPI       0.031700
     13 C12          6.0980    -3.2960     1.7930 c          1 DPI       0.593100
     14 O13          6.6950    -4.3460     1.9860 o          1 DPI      -0.604100
     15 C14          4.4370    -3.5100     3.7420 c3         1 DPI       0.213600
     16 O15          3.0390    -3.5680     4.0540 oh         1 DPI      -0.644000
     17 C16          5.1470    -2.5620     4.7100 ca         1 DPI      -0.134300
     18 C17          6.4190    -2.9050     5.2190 ca         1 DPI      -0.072000
     19 C18          4.5990    -1.2990     5.0200 ca         1 DPI      -0.094000
     20 C19          7.1660    -1.9700     5.9560 ca         1 DPI       0.099000
     21 C20          5.3580    -0.3560     5.7260 ca         1 DPI      -0.118000
     22 C21          6.6500    -0.6770     6.1690 ca         1 DPI       0.097100
     23 O22          7.4630     0.3390     6.6130 os         1 DPI      -0.236200
     24 N24          6.7100    -2.2240     1.1670 ns         1 DPI      -0.507900
     25 C25          8.0370    -2.2720     0.4960 c3         1 DPI       0.038700
     26 C26          8.9230    -1.0210     0.8040 c          1 DPI       0.590100
     27 O27          9.9600    -0.7860     0.1990 o          1 DPI      -0.597100
     28 N32          8.4360    -0.1400     1.7450 ns         1 DPI      -0.483900
     29 C33          8.9800     1.2190     1.9800 c3         1 DPI       0.071000
     30 C34          8.3920     2.1470     0.8770 c          1 DPI       0.576100
     31 O35          7.2630     1.9960     0.4270 o          1 DPI      -0.586100
     32 C36          8.6300     1.7380     3.3980 ca         1 DPI      -0.028300
     33 C37          8.6110     3.1150     3.7010 ca         1 DPI      -0.180000
     34 C38          8.2920     0.8400     4.4270 ca         1 DPI      -0.173000
     35 C39          8.2110     3.5820     4.9720 ca         1 DPI       0.167100
     36 C40          7.8740     1.2870     5.6990 ca         1 DPI       0.117100
     37 C41          7.8350     2.6750     5.9840 ca         1 DPI       0.063100
     38 O42          7.4660     3.1880     7.2180 os         1 DPI      -0.308100
     39 N43          9.1820     3.2090     0.4890 ns         1 DPI      -0.488900
     40 C44          8.6380     4.4050    -0.1760 c3         1 DPI       0.087000
     41 C45          9.5040     5.6730     0.1300 c          1 DPI       0.601100
     42 O46         10.6210     5.6050     0.6260 o          1 DPI      -0.633100
     43 C47          8.4420     4.2250    -1.6840 ca         1 DPI      -0.160300
     44 C48          7.1590     4.3750    -2.2430 ca         1 DPI      -0.037000
     45 C49          9.5410     4.0140    -2.5380 ca         1 DPI      -0.063000
     46 C50          6.9580     4.3900    -3.6410 cp         1 DPI      -0.085000
     47 C51          9.3520     3.9720    -3.9310 ca         1 DPI      -0.162000
     48 C52          8.0750     4.1670    -4.4810 ca         1 DPI       0.187100
     49 O53          7.9260     4.1460    -5.8350 oh         1 DPI      -0.533100
     50 N54          9.0180     6.8970    -0.2850 ns         1 DPI      -0.464900
     51 C55          7.5820     7.2340    -0.4880 c3         1 DPI       0.032700
     52 C56          7.3390     7.7420    -1.9290 c          1 DPI       0.589100
     53 O57          8.1740     8.3540    -2.5840 o          1 DPI      -0.582100
     54 C58          7.0440     8.1610     0.6260 c3         1 DPI       0.214600
     55 O59          7.7740     9.4000     0.5800 os         1 DPI      -0.471000
     56 C60          7.2460     7.4580     1.9780 ca         1 DPI      -0.124300
     57 C61          8.4020     7.6780     2.7640 ca         1 DPI      -0.094000
     58 C62          6.3430     6.4440     2.3620 ca         1 DPI      -0.094000
     59 C63          8.6700     6.8670     3.8800 ca         1 DPI      -0.121500
     60 C64          6.6160     5.6300     3.4750 ca         1 DPI      -0.121500
     61 C65          7.7960     5.8240     4.2150 ca         1 DPI       0.086100
     62 O66          8.1430     4.9430     5.2130 os         1 DPI      -0.226200
     63 N68          6.1440     7.3230    -2.4820 ns         1 DPI      -0.451900
     64 C69          5.9220     7.1980    -3.9420 c3         1 DPI      -0.007000
     65 C70          5.4290     8.5400    -4.5710 c          1 DPI       0.726000
     66 O71          4.6700     9.2550    -3.9280 o          1 DPI      -0.707000
     67 C72          5.0560     5.9690    -4.2880 ca         1 DPI       0.036700
     68 C73          5.5850     4.6430    -4.1870 cp         1 DPI      -0.156000
     69 C74          3.7210     6.1370    -4.7230 ca         1 DPI      -0.204000
     70 C75          4.7720     3.5460    -4.5680 ca         1 DPI       0.170100
     71 C76          3.4630     3.7430    -5.0160 ca         1 DPI      -0.265000
     72 C77          2.9370     5.0340    -5.0810 ca         1 DPI       0.174100
     73 O78          1.6550     5.2070    -5.5050 oh         1 DPI      -0.546100
     74 O79          5.2500     2.2720    -4.5060 oh         1 DPI      -0.532100
     75 O80          5.8110     8.8170    -5.7000 o          1 DPI      -0.707000
     76 C10          7.2010    10.4990     1.3010 c6         1 DPI       0.396300
     77 C2           8.1840    11.7030     1.4050 c6         1 DPI      -0.122400
     78 C13          8.3940    12.4440     0.0520 c6         1 DPI       0.139200
     79 C15          6.9840    12.7770    -0.5440 c6         1 DPI       0.158300
     80 C5           6.1180    11.4850    -0.6610 c6         1 DPI       0.171300
     81 O6           5.9690    10.8950     0.6560 os         1 DPI      -0.482000
     82 C23          9.2970    11.6230    -0.9270 c3         1 DPI      -0.083100
     83 N8           9.1140    13.7200     0.2810 n8         1 DPI      -1.016200
     84 O9           7.1560    13.4920    -1.7740 oh         1 DPI      -0.699000
     85 C1D          4.6850    11.7620    -1.1780 c3         1 DPI      -0.078100
     86 C2D          6.2580     2.7590     7.8740 c6         1 DPI       0.392300
     87 C3D          6.1080     3.4850     9.2600 c6         1 DPI       0.124300
     88 C4D          4.6970     3.1810     9.8390 c6         1 DPI       0.113300
     89 C5D          3.5840     3.5610     8.8310 c6         1 DPI       0.140300
     90 C22          3.8360     2.7870     7.5050 c6         1 DPI       0.179300
     91 O7           5.1560     3.1170     7.0040 os         1 DPI      -0.462000
     92 O8           7.0840     3.0930    10.2720 os         1 DPI      -0.476000
     93 O9D          4.4940     3.8500    11.0990 oh         1 DPI      -0.725000
     94 O1A          2.3070     3.2580     9.4180 oh         1 DPI      -0.717000
     95 C4A          8.4570     3.4860    10.0500 c6         1 DPI       0.347300
     96 C5A          9.1690     3.8590    11.3930 c6         1 DPI       0.163300
     97 C6A          9.1880     2.5870    12.3100 c6         1 DPI       0.108300
     98 C7A          9.8730     1.3910    11.5800 c6         1 DPI       0.096300
     99 C8A          9.2020     1.1640    10.1850 c6         1 DPI       0.139300
    100 O9A          9.1770     2.3970     9.4240 os         1 DPI      -0.469000
    101 O1B         10.5170     4.3390    11.1350 oh         1 DPI      -0.698000
    102 O2B          9.8410     2.8290    13.5710 oh         1 DPI      -0.642000
    103 O3B          9.8260     0.2060    12.4090 oh         1 DPI      -0.715000
    104 C4B          9.9640     0.1310     9.3180 c3         1 DPI      -0.082100
    105 C28          7.8460    -2.4870    -1.0300 c3         1 DPI      -0.182400
    106 C29          7.0440    -1.3510    -1.6710 c          1 DPI       0.598100
    107 O30          5.8280    -1.3000    -1.6510 o          1 DPI      -0.630100
    108 N31          7.7580    -0.3770    -2.2690 nt         1 DPI      -0.585000
    109 C2A          2.7840     3.1370     6.4010 c3         1 DPI       0.169600
    110 O3A          3.0210     2.4660     5.1470 oh         1 DPI      -0.718000
    111 HC1         -0.2560     0.1360     2.8910 h1         1 DPI       0.031033
    112 HC2          1.3410     0.3850     3.6300 h1         1 DPI       0.031033
    113 HC3          0.9530    -1.1650     2.8480 h1         1 DPI       0.031033
    114 HN2          0.8070    -0.0160     0.7400 hn         1 DPI       0.428000
    115 HA           3.3510     0.6620     2.1010 h1         1 DPI       0.068700
    116 HC61         2.6960     0.6030    -0.8820 hc         1 DPI       0.056200
    117 HC62         4.2940     0.8160    -0.1940 hc         1 DPI       0.056200
    118 HC7          1.9570     2.7620     0.1710 hc         1 DPI       0.055700
    119 HA1          3.6450     4.3510     1.1080 hc         1 DPI       0.035200
    120 HB2          4.8800     3.0790     1.0570 hc         1 DPI       0.035200
    121 HD3          3.4710     2.9180     2.1270 hc         1 DPI       0.035200
    122 HB1          2.7640     2.7550    -2.1590 hc         1 DPI       0.035200
    123 HD2          4.4360     2.9920    -1.6100 hc         1 DPI       0.035200
    124 HE3          3.2240     4.2690    -1.3600 hc         1 DPI       0.035200
    125 HN01         4.5290    -0.9480     2.6680 hn         1 DPI       0.318500
    126 HC11         4.0270    -3.7350     1.6310 h1         1 DPI       0.117700
    127 HC41         4.8660    -4.5160     3.8570 h1         1 DPI       0.066700
    128 HO51         2.9750    -3.7640     5.0130 ho         1 DPI       0.450000
    129 HC71         6.8580    -3.8740     4.9940 ha         1 DPI       0.150000
    130 HC81         3.6130    -1.0160     4.6550 ha         1 DPI       0.133000
    131 HC02         4.9690     0.6480     5.8670 ha         1 DPI       0.135000
    132 HN42         6.0900    -1.4510     0.9490 hn         1 DPI       0.358500
    133 HC52         8.6010    -3.1240     0.9000 h1         1 DPI       0.106700
    134 HN23         7.5680    -0.3960     2.1970 hn         1 DPI       0.336500
    135 HC33        10.0710     1.1990     1.8650 h1         1 DPI       0.105700
    136 HC73         8.8980     3.8440     2.9510 ha         1 DPI       0.139000
    137 HC83         8.3430    -0.2280     4.2430 ha         1 DPI       0.137000
    138 HN34        10.1130     3.2730     0.8860 hn         1 DPI       0.343500
    139 HC44         7.6630     4.5800     0.2940 h1         1 DPI       0.075700
    140 HC84         6.3020     4.5270    -1.5920 ha         1 DPI       0.110000
    141 HC94        10.5420     3.9000    -2.1260 ha         1 DPI       0.115000
    142 HC15        10.2030     3.8100    -4.5870 ha         1 DPI       0.123000
    143 HO35         6.9630     4.2010    -6.0130 ho         1 DPI       0.487000
    144 HN45         9.6550     7.6740    -0.1600 hn         1 DPI       0.341500
    145 HC55         6.9800     6.3290    -0.4050 h1         1 DPI       0.061700
    146 HC85         5.9720     8.3310     0.4540 h1         1 DPI       0.081700
    147 HC16         9.1290     8.4360     2.4790 ha         1 DPI       0.123000
    148 HC26         5.4540     6.2480     1.7660 ha         1 DPI       0.123000
    149 HC36         9.5850     7.0110     4.4500 ha         1 DPI       0.139000
    150 HC46         5.9370     4.8210     3.7350 ha         1 DPI       0.139000
    151 HN86         5.4890     6.8540    -1.8690 hn         1 DPI       0.296500
    152 HC96         6.9030     7.0210    -4.4010 h1         1 DPI       0.077700
    153 HC47         3.2860     7.1300    -4.7860 ha         1 DPI       0.157000
    154 HC67         2.8430     2.8980    -5.3030 ha         1 DPI       0.119000
    155 HO87         1.4510     6.1660    -5.4940 ho         1 DPI       0.473000
    156 HO97         4.5360     1.6660    -4.7900 ho         1 DPI       0.460000
    157 HC'1         6.9710    10.1640     2.3240 h2         1 DPI       0.058700
    158 H2'1         9.1440    11.3540     1.8070 hc         1 DPI       0.047700
    159 H2'2         7.7810    12.4010     2.1510 hc         1 DPI       0.047700
    160 HC'4         6.4710    13.4390     0.1700 h1         1 DPI       0.018700
    161 HC'5         6.5940    10.7610    -1.3380 h1         1 DPI       0.093700
    162 H7'1         8.8100    10.7160    -1.2940 hc         1 DPI       0.052367
    163 H7'2        10.2300    11.3110    -0.4410 hc         1 DPI       0.052367
    164 H7'3         9.5750    12.2070    -1.8120 hc         1 DPI       0.052367
    165 H8'1        10.1210    13.5540     0.1720 hn         1 DPI       0.393500
    166 H8'2         9.0260    13.9750     1.2720 hn         1 DPI       0.393500
    167 HO'9         7.9610    14.0330    -1.5790 ho         1 DPI       0.516000
    168 H1'1         4.0930    10.8400    -1.2020 hc         1 DPI       0.051367
    169 H1'2         4.7050    12.1650    -2.1970 hc         1 DPI       0.051367
    170 H1'3         4.1630    12.4840    -0.5400 hc         1 DPI       0.051367
    171 HC'2         6.2650     1.6750     8.0460 h2         1 DPI       0.041700
    172 HC'3         6.1890     4.5680     9.0890 h1         1 DPI       0.089700
    173 HCA4         4.6440     2.0930     9.9990 h1         1 DPI       0.051700
    174 HCA5         3.6530     4.6400     8.6220 h1         1 DPI       0.060700
    175 HC'6         3.7870     1.7050     7.6970 h1         1 DPI       0.057700
    176 HOA9         5.3340     3.7250    11.6020 ho         1 DPI       0.517000
    177 HOA1         2.4320     3.4710    10.3760 ho         1 DPI       0.522000
    178 HCAA         8.4860     4.3700     9.3940 h2         1 DPI       0.086700
    179 HCAB         8.5760     4.6390    11.8910 h1         1 DPI       0.090700
    180 HCA6         8.1420     2.3050    12.5030 h1         1 DPI       0.049700
    181 HCA7        10.9250     1.6620    11.3990 h1         1 DPI       0.084700
    182 HCA8         8.1690     0.8080    10.3170 h1         1 DPI       0.068700
    183 HOB1        10.8770     3.7710    10.4160 ho         1 DPI       0.510000
    184 HOB2        10.1660     1.9470    13.8630 ho         1 DPI       0.452000
    185 HOB3         8.8910    -0.1080    12.4350 ho         1 DPI       0.508000
    186 H4B1        11.0120     0.4220     9.1800 hc         1 DPI       0.048700
    187 H4B2         9.5100     0.0400     8.3250 hc         1 DPI       0.048700
    188 H4B3         9.9500    -0.8630     9.7790 hc         1 DPI       0.048700
    189 H281         7.3080    -3.4290    -1.1830 hc         1 DPI       0.079700
    190 H282         8.8390    -2.5470    -1.4910 hc         1 DPI       0.079700
    191 H311         7.2720     0.4040    -2.6810 hn         1 DPI       0.330000
    192 H312         8.7660    -0.4090    -2.2610 hn         1 DPI       0.330000
    193 H2A1         2.7970     4.2260     6.2530 h1         1 DPI       0.041700
    194 H2A2         1.7870     2.8740     6.7810 h1         1 DPI       0.041700
    195 HOA3         2.3450     2.7950     4.5130 ho         1 DPI       0.511000
@<TRIPOS>BOND
     1     1     2 1   
     2     1   111 1   
     3     1   112 1   
     4     1   113 1   
     5     2     3 1   
     6     2   114 1   
     7     3     4 1   
     8     3     6 1   
     9     3   115 1   
    10     4     5 2   
    11     4    11 1   
    12     6     7 1   
    13     6   116 1   
    14     6   117 1   
    15     7     8 1   
    16     7     9 1   
    17     7   118 1   
    18     8   119 1   
    19     8   120 1   
    20     8   121 1   
    21     9   122 1   
    22     9   123 1   
    23     9   124 1   
    24    10    20 1   
    25    11    12 1   
    26    11   125 1   
    27    12    13 1   
    28    12    15 1   
    29    12   126 1   
    30    13    14 2   
    31    13    24 1   
    32    15    16 1   
    33    15    17 1   
    34    15   127 1   
    35    16   128 1   
    36    17    18 ar  
    37    17    19 ar  
    38    18    20 ar  
    39    18   129 1   
    40    19    21 ar  
    41    19   130 1   
    42    20    22 ar  
    43    21    22 ar  
    44    21   131 1   
    45    22    23 1   
    46    23    36 1   
    47    24    25 1   
    48    24   132 1   
    49    25    26 1   
    50    25   105 1   
    51    25   133 1   
    52    26    27 2   
    53    26    28 1   
    54    28    29 1   
    55    28   134 1   
    56    29    30 1   
    57    29    32 1   
    58    29   135 1   
    59    30    31 2   
    60    30    39 1   
    61    32    33 ar  
    62    32    34 ar  
    63    33    35 ar  
    64    33   136 1   
    65    34    36 ar  
    66    34   137 1   
    67    35    37 ar  
    68    35    62 1   
    69    36    37 ar  
    70    37    38 1   
    71    38    86 1   
    72    39    40 1   
    73    39   138 1   
    74    40    41 1   
    75    40    43 1   
    76    40   139 1   
    77    41    42 2   
    78    41    50 1   
    79    43    44 ar  
    80    43    45 ar  
    81    44    46 ar  
    82    44   140 1   
    83    45    47 ar  
    84    45   141 1   
    85    46    48 ar  
    86    46    68 1   
    87    47    48 ar  
    88    47   142 1   
    89    48    49 1   
    90    49   143 1   
    91    50    51 1   
    92    50   144 1   
    93    51    52 1   
    94    51    54 1   
    95    51   145 1   
    96    52    53 2   
    97    52    63 1   
    98    54    55 1   
    99    54    56 1   
   100    54   146 1   
   101    55    76 1   
   102    56    57 ar  
   103    56    58 ar  
   104    57    59 ar  
   105    57   147 1   
   106    58    60 ar  
   107    58   148 1   
   108    59    61 ar  
   109    59   149 1   
   110    60    61 ar  
   111    60   150 1   
   112    61    62 1   
   113    63    64 1   
   114    63   151 1   
   115    64    65 1   
   116    64    67 1   
   117    64   152 1   
   118    65    66 1   
   119    65    75 1   
   120    67    68 ar  
   121    67    69 ar  
   122    68    70 ar  
   123    69    72 ar  
   124    69   153 1   
   125    70    71 ar  
   126    70    74 1   
   127    71    72 ar  
   128    71   154 1   
   129    72    73 1   
   130    73   155 1   
   131    74   156 1   
   132    76    77 1   
   133    76    81 1   
   134    76   157 1   
   135    77    78 1   
   136    77   158 1   
   137    77   159 1   
   138    78    79 1   
   139    78    82 1   
   140    78    83 1   
   141    79    80 1   
   142    79    84 1   
   143    79   160 1   
   144    80    81 1   
   145    80    85 1   
   146    80   161 1   
   147    82   162 1   
   148    82   163 1   
   149    82   164 1   
   150    83   165 1   
   151    83   166 1   
   152    84   167 1   
   153    85   168 1   
   154    85   169 1   
   155    85   170 1   
   156    86    87 1   
   157    86    91 1   
   158    86   171 1   
   159    87    88 1   
   160    87    92 1   
   161    87   172 1   
   162    88    89 1   
   163    88    93 1   
   164    88   173 1   
   165    89    90 1   
   166    89    94 1   
   167    89   174 1   
   168    90    91 1   
   169    90   109 1   
   170    90   175 1   
   171    92    95 1   
   172    93   176 1   
   173    94   177 1   
   174    95    96 1   
   175    95   100 1   
   176    95   178 1   
   177    96    97 1   
   178    96   101 1   
   179    96   179 1   
   180    97    98 1   
   181    97   102 1   
   182    97   180 1   
   183    98    99 1   
   184    98   103 1   
   185    98   181 1   
   186    99   100 1   
   187    99   104 1   
   188    99   182 1   
   189   101   183 1   
   190   102   184 1   
   191   103   185 1   
   192   104   186 1   
   193   104   187 1   
   194   104   188 1   
   195   105   106 1   
   196   105   189 1   
   197   105   190 1   
   198   106   107 2   
   199   106   108 1   
   200   108   191 1   
   201   108   192 1   
   202   109   110 1   
   203   109   193 1   
   204   109   194 1   
   205   110   195 1   
@<TRIPOS>SUBSTRUCTURE
     1 DPI         1 TEMP              0 ****  ****    0 ROOT
