@<TRIPOS>MOLECULE
DPI
  195   205     1     0     0
SMALL
bcc


@<TRIPOS>ATOM
      1 C1           1.3640    -1.4030     3.2300 c3         1 DPI       0.141100
      2 N2           1.4440    -1.3020     1.7860 n7         1 DPI      -0.797200
      3 C3           2.7930    -1.2810     1.2680 c3         1 DPI       0.106500
      4 C4           3.5520    -2.5810     1.5510 c          1 DPI       0.636100
      5 O5           3.1380    -3.6600     1.1640 o          1 DPI      -0.592100
      6 C6           2.7860    -1.0460    -0.2440 c3         1 DPI      -0.067400
      7 C7           2.3110     0.3430    -0.6760 c3         1 DPI      -0.054700
      8 C8           3.3200     1.4300    -0.3150 c3         1 DPI      -0.090100
      9 C9           2.0350     0.3470    -2.1760 c3         1 DPI      -0.090100
     10 CL1          9.2080    -1.4730     6.7530 cl         1 DPI      -0.079400
     11 N10          4.7140    -2.4260     2.2260 ns         1 DPI      -0.576900
     12 C11          5.5770    -3.5050     2.6170 c3         1 DPI       0.031700
     13 C12          7.0360    -3.2330     2.2400 c          1 DPI       0.660100
     14 O13          7.9510    -3.8310     2.7780 o          1 DPI      -0.604100
     15 C14          5.4320    -3.8760     4.1140 c3         1 DPI       0.190400
     16 O15          4.0880    -4.2350     4.2920 oh         1 DPI      -0.581800
     17 C16          5.8470    -2.7240     4.9970 ca         1 DPI      -0.134300
     18 C17          7.1270    -2.6920     5.5390 ca         1 DPI      -0.090000
     19 C18          4.9950    -1.6430     5.2120 ca         1 DPI      -0.112000
     20 C19          7.5830    -1.5510     6.1760 ca         1 DPI       0.007400
     21 C20          5.4580    -0.4960     5.8320 ca         1 DPI      -0.136000
     22 C21          6.7700    -0.4310     6.2710 ca         1 DPI       0.097100
     23 O22          7.2850     0.7600     6.7040 os         1 DPI      -0.236200
     24 N24          7.2180    -2.3290     1.2570 ns         1 DPI      -0.574900
     25 C25          8.5160    -2.0350     0.7060 c3         1 DPI       0.038700
     26 C26          9.1880    -0.7780     1.2690 c          1 DPI       0.657100
     27 O27         10.3860    -0.6200     1.1190 o          1 DPI      -0.597100
     28 N32          8.3740     0.1370     1.8310 ns         1 DPI      -0.550900
     29 C33          8.7850     1.4960     2.0640 c3         1 DPI       0.071000
     30 C34          8.0720     2.4050     1.0600 c          1 DPI       0.643100
     31 O35          6.8660     2.3330     0.9030 o          1 DPI      -0.586100
     32 C36          8.4370     2.0040     3.4560 ca         1 DPI      -0.028300
     33 C37          8.5210     3.3620     3.7400 ca         1 DPI      -0.198000
     34 C38          8.0290     1.1230     4.4390 ca         1 DPI      -0.191000
     35 C39          8.1490     3.8370     4.9900 ca         1 DPI       0.167100
     36 C40          7.6860     1.5980     5.7000 ca         1 DPI       0.117100
     37 C41          7.7130     2.9600     5.9840 ca         1 DPI       0.063100
     38 O42          7.3670     3.4410     7.2090 os         1 DPI      -0.284900
     39 N43          8.8500     3.3080     0.4490 ns         1 DPI      -0.555900
     40 C44          8.2730     4.4640    -0.1840 c3         1 DPI       0.087000
     41 C45          9.3220     5.5800    -0.1580 c          1 DPI       0.668100
     42 O46         10.5080     5.3070    -0.0630 o          1 DPI      -0.633100
     43 C47          7.8200     4.2810    -1.6150 ca         1 DPI      -0.160300
     44 C48          6.5150     4.5940    -1.9600 ca         1 DPI      -0.055000
     45 C49          8.7030     3.9280    -2.6340 ca         1 DPI      -0.081000
     46 C50          6.0870     4.6600    -3.2800 cp         1 DPI      -0.085000
     47 C51          8.2870     3.9270    -3.9540 ca         1 DPI      -0.180000
     48 C52          6.9890     4.3190    -4.2870 ca         1 DPI       0.187100
     49 O53          6.6630     4.3610    -5.5910 oh         1 DPI      -0.494100
     50 N54          8.8890     6.8420    -0.3040 ns         1 DPI      -0.531900
     51 C55          7.5370     7.3280    -0.3170 c3         1 DPI       0.032700
     52 C56          7.1510     7.7510    -1.7400 c          1 DPI       0.656100
     53 O57          7.9850     8.1520    -2.5360 o          1 DPI      -0.582100
     54 C58          7.3560     8.4080     0.7680 c3         1 DPI       0.191400
     55 O59          8.2890     9.4200     0.5100 os         1 DPI      -0.424600
     56 C60          7.5590     7.7230     2.1030 ca         1 DPI      -0.124300
     57 C61          8.8020     7.6640     2.7220 ca         1 DPI      -0.112000
     58 C62          6.5090     6.9810     2.6400 ca         1 DPI      -0.112000
     59 C63          9.0140     6.8280     3.8120 ca         1 DPI      -0.139500
     60 C64          6.7070     6.1380     3.7200 ca         1 DPI      -0.139500
     61 C65          7.9730     6.0440     4.2800 ca         1 DPI       0.086100
     62 O66          8.2000     5.1580     5.3090 os         1 DPI      -0.226200
     63 N68          5.8660     7.5540    -2.0560 ns         1 DPI      -0.518900
     64 C69          5.4220     7.5280    -3.4360 c3         1 DPI      -0.007000
     65 C70          4.9810     8.9120    -3.9870 c          1 DPI       0.936600
     66 O71          4.5900     9.7530    -3.1600 o          1 DPI      -0.812300
     67 C72          4.3460     6.4650    -3.5890 ca         1 DPI       0.036700
     68 C73          4.7020     5.1080    -3.5750 cp         1 DPI      -0.156000
     69 C74          3.0150     6.8310    -3.7340 ca         1 DPI      -0.222000
     70 C75          3.7000     4.1460    -3.7490 ca         1 DPI       0.170100
     71 C76          2.3720     4.5130    -3.9170 ca         1 DPI      -0.283000
     72 C77          2.0320     5.8590    -3.9000 ca         1 DPI       0.174100
     73 O78          0.7320     6.1680    -4.0500 oh         1 DPI      -0.507100
     74 O79          4.0870     2.8580    -3.7410 oh         1 DPI      -0.493100
     75 O80          5.0450     9.0190    -5.2240 o          1 DPI      -0.812300
     76 C10          8.0550    10.6480     1.1540 c6         1 DPI       0.349900
     77 C2           9.3250    11.4820     1.1020 c6         1 DPI      -0.122400
     78 C13          9.6070    12.1210    -0.2650 c6         1 DPI       0.139200
     79 C15          8.3070    12.8060    -0.7130 c6         1 DPI       0.135100
     80 C5           7.1200    11.8460    -0.7060 c6         1 DPI       0.148100
     81 O6           6.9570    11.3100     0.6050 os         1 DPI      -0.435600
     82 C23         10.1110    11.1010    -1.2880 c3         1 DPI      -0.083100
     83 N8          10.6160    13.1770    -0.1960 n8         1 DPI      -0.905800
     84 O9           8.4380    13.3760    -1.9880 oh         1 DPI      -0.576800
     85 C1D          5.8170    12.5330    -1.0620 c3         1 DPI      -0.078100
     86 C2D          6.0070     3.4510     7.5220 c6         1 DPI       0.345900
     87 C3D          5.8600     3.7360     9.0120 c6         1 DPI       0.101100
     88 C4D          4.3750     3.8800     9.3380 c6         1 DPI       0.090100
     89 C5D          3.7190     4.9200     8.4340 c6         1 DPI       0.117100
     90 C22          4.0020     4.5560     6.9760 c6         1 DPI       0.156100
     91 O7           5.4030     4.4750     6.7870 os         1 DPI      -0.415600
     92 O8           6.3960     2.6710     9.7650 os         1 DPI      -0.429600
     93 O9D          4.1780     4.2740    10.6750 oh         1 DPI      -0.602800
     94 O1A          2.3290     4.9500     8.6230 oh         1 DPI      -0.594800
     95 C4A          7.2780     3.0230    10.7890 c6         1 DPI       0.300900
     96 C5A          7.3050     1.8850    11.8120 c6         1 DPI       0.140100
     97 C6A          8.0000     0.6670    11.2050 c6         1 DPI       0.085100
     98 C7A          9.3770     1.0490    10.6620 c6         1 DPI       0.073100
     99 C8A          9.2420     2.2210     9.6860 c6         1 DPI       0.116100
    100 O9A          8.5640     3.3030    10.3180 os         1 DPI      -0.422600
    101 O1B          7.9000     2.3190    13.0100 oh         1 DPI      -0.575800
    102 O2B          8.0720    -0.3400    12.1810 oh         1 DPI      -0.579800
    103 O3B         10.0160    -0.0590    10.0690 oh         1 DPI      -0.592800
    104 C4B         10.5740     2.7490     9.1980 c3         1 DPI      -0.082100
    105 C28          8.4520    -1.8730    -0.8240 c3         1 DPI      -0.182400
    106 C29          7.5980    -0.6870    -1.2280 c          1 DPI       0.665100
    107 O30          6.3950    -0.6700    -0.9850 o          1 DPI      -0.630100
    108 N31          8.2350     0.3220    -1.8280 nt         1 DPI      -0.652000
    109 C2A          3.4560     5.5770     6.0040 c3         1 DPI       0.146400
    110 O3A          3.5690     5.0600     4.6970 oh         1 DPI      -0.595800
    111 HC1          0.3190    -1.3900     3.5390 h1         1 DPI       0.031033
    112 HC2          1.8520    -0.5390     3.6850 h1         1 DPI       0.031033
    113 HC3          1.8230    -2.3040     3.6590 h1         1 DPI       0.031033
    114 HN2          0.9290    -2.0620     1.3570 hn         1 DPI       0.372800
    115 HA           3.3180    -0.4530     1.7570 h1         1 DPI       0.068700
    116 HC61         2.1510    -1.8110    -0.7030 hc         1 DPI       0.056200
    117 HC62         3.7940    -1.2100    -0.6390 hc         1 DPI       0.056200
    118 HC7          1.3710     0.5600    -0.1590 hc         1 DPI       0.055700
    119 HA1          2.9620     2.4130    -0.6260 hc         1 DPI       0.035200
    120 HB2          4.2770     1.2530    -0.8130 hc         1 DPI       0.035200
    121 HD3          3.5110     1.4790     0.7580 hc         1 DPI       0.035200
    122 HB1          1.2860    -0.3980    -2.4460 hc         1 DPI       0.035200
    123 HD2          2.9440     0.1190    -2.7390 hc         1 DPI       0.035200
    124 HE3          1.6650     1.3200    -2.5070 hc         1 DPI       0.035200
    125 HN01         4.9300    -1.5030     2.5730 hn         1 DPI       0.318500
    126 HC11         5.2730    -4.3870     2.0430 h1         1 DPI       0.117700
    127 HC41         6.0980    -4.7260     4.3010 h1         1 DPI       0.066700
    128 HO51         3.9690    -4.5240     5.2040 ho         1 DPI       0.411000
    129 HC71         7.7900    -3.5400     5.4260 ha         1 DPI       0.168000
    130 HC81         3.9730    -1.6740     4.8590 ha         1 DPI       0.151000
    131 HC02         4.8190     0.3720     5.9340 ha         1 DPI       0.153000
    132 HN42         6.4100    -1.9510     0.7780 hn         1 DPI       0.358500
    133 HC52         9.1860    -2.8690     0.9200 h1         1 DPI       0.106700
    134 HN23         7.3840    -0.0580     1.8740 hn         1 DPI       0.336500
    135 HC33         9.8670     1.5420     1.9270 h1         1 DPI       0.105700
    136 HC73         8.8610     4.0620     2.9880 ha         1 DPI       0.157000
    137 HC83         7.9780     0.0670     4.2130 ha         1 DPI       0.155000
    138 HN34         9.8480     3.3220     0.6120 hn         1 DPI       0.343500
    139 HC44         7.4030     4.7520     0.4120 h1         1 DPI       0.075700
    140 HC84         5.7990     4.8270    -1.1800 ha         1 DPI       0.128000
    141 HC94         9.7290     3.6660    -2.4050 ha         1 DPI       0.133000
    142 HC15         8.9780     3.6510    -4.7410 ha         1 DPI       0.141000
    143 HO35         5.7610     4.6900    -5.6990 ho         1 DPI       0.448000
    144 HN45         9.6200     7.5380    -0.3820 hn         1 DPI       0.341500
    145 HC55         6.8660     6.5270    -0.0170 h1         1 DPI       0.061700
    146 HC85         6.3250     8.7790     0.6990 h1         1 DPI       0.081700
    147 HC16         9.6330     8.2430     2.3410 ha         1 DPI       0.141000
    148 HC26         5.5260     7.0350     2.1860 ha         1 DPI       0.141000
    149 HC36         9.9930     6.7620     4.2690 ha         1 DPI       0.157000
    150 HC46         5.8870     5.5470     4.1100 ha         1 DPI       0.157000
    151 HN86         5.2270     7.2380    -1.3430 hn         1 DPI       0.296500
    152 HC96         6.2800     7.2080    -4.0330 h1         1 DPI       0.077700
    153 HC47         2.7280     7.8760    -3.7080 ha         1 DPI       0.175000
    154 HC67         1.6010     3.7610    -4.0520 ha         1 DPI       0.137000
    155 HO87         0.6060     7.1240    -4.0260 ho         1 DPI       0.434000
    156 HO97         3.3300     2.2770    -3.8800 ho         1 DPI       0.421000
    157 HC'1         7.7790    10.4660     2.2010 h2         1 DPI       0.058700
    158 H2'1        10.1780    10.8870     1.4380 hc         1 DPI       0.047700
    159 H2'2         9.2000    12.2850     1.8350 hc         1 DPI       0.047700
    160 HC'4         8.0850    13.5870     0.0390 h1         1 DPI       0.018700
    161 HC'5         7.2950    11.0390    -1.4290 h1         1 DPI       0.093700
    162 H7'1         9.3730    10.3450    -1.5390 hc         1 DPI       0.052367
    163 H7'2        10.9870    10.5820    -0.8910 hc         1 DPI       0.052367
    164 H7'3        10.4160    11.5960    -2.2100 hc         1 DPI       0.052367
    165 H8'1        11.5350    12.7760    -0.0500 hn         1 DPI       0.338300
    166 H8'2        10.4420    13.7820     0.6000 hn         1 DPI       0.338300
    167 HO'9         9.3090    13.7940    -1.9940 ho         1 DPI       0.417000
    168 H1'1         4.9850    11.8320    -1.0030 hc         1 DPI       0.051367
    169 H1'2         5.8530    12.9160    -2.0800 hc         1 DPI       0.051367
    170 H1'3         5.6140    13.3680    -0.3890 hc         1 DPI       0.051367
    171 HC'2         5.5340     2.4870     7.2770 h2         1 DPI       0.041700
    172 HC'3         6.3750     4.6810     9.2330 h1         1 DPI       0.089700
    173 HCA4         3.8860     2.9140     9.1380 h1         1 DPI       0.051700
    174 HCA5         4.1720     5.9030     8.6400 h1         1 DPI       0.060700
    175 HC'6         3.5350     3.5790     6.7650 h1         1 DPI       0.057700
    176 HOA9         4.1470     3.4900    11.2320 ho         1 DPI       0.418000
    177 HOA1         2.1590     5.1230     9.5560 ho         1 DPI       0.423000
    178 HCAA         6.9480     3.9440    11.2830 h2         1 DPI       0.086700
    179 HCAB         6.2740     1.6240    12.0690 h1         1 DPI       0.090700
    180 HCA6         7.3890     0.3370    10.3480 h1         1 DPI       0.049700
    181 HCA7        10.0300     1.3460    11.4910 h1         1 DPI       0.084700
    182 HCA8         8.6640     1.8770     8.8200 h1         1 DPI       0.068700
    183 HOB1         8.7750     2.6770    12.8250 ho         1 DPI       0.411000
    184 HOB2         8.5260    -1.0940    11.7900 ho         1 DPI       0.413000
    185 HOB3         9.5140    -0.3280     9.2900 ho         1 DPI       0.409000
    186 H4B1        11.1900     3.1020    10.0270 hc         1 DPI       0.048700
    187 H4B2        10.4260     3.5730     8.5000 hc         1 DPI       0.048700
    188 H4B3        11.1230     1.9690     8.6740 hc         1 DPI       0.048700
    189 H281         8.0140    -2.7780    -1.2500 hc         1 DPI       0.079700
    190 H282         9.4700    -1.7940    -1.2050 hc         1 DPI       0.079700
    191 H311         7.7320     1.1520    -2.1030 hn         1 DPI       0.330000
    192 H312         9.2210     0.2960    -2.0220 hn         1 DPI       0.330000
    193 H2A1         4.0110     6.5170     6.1230 h1         1 DPI       0.041700
    194 H2A2         2.4110     5.7800     6.2620 h1         1 DPI       0.041700
    195 HOA3         3.2530     5.7280     4.0810 ho         1 DPI       0.412000
@<TRIPOS>BOND
     1     1     2 1   
     2     1   111 1   
     3     1   112 1   
     4     1   113 1   
     5     2     3 1   
     6     2   114 1   
     7     3     4 1   
     8     3     6 1   
     9     3   115 1   
    10     4     5 2   
    11     4    11 1   
    12     6     7 1   
    13     6   116 1   
    14     6   117 1   
    15     7     8 1   
    16     7     9 1   
    17     7   118 1   
    18     8   119 1   
    19     8   120 1   
    20     8   121 1   
    21     9   122 1   
    22     9   123 1   
    23     9   124 1   
    24    10    20 1   
    25    11    12 1   
    26    11   125 1   
    27    12    13 1   
    28    12    15 1   
    29    12   126 1   
    30    13    14 2   
    31    13    24 1   
    32    15    16 1   
    33    15    17 1   
    34    15   127 1   
    35    16   128 1   
    36    17    18 ar  
    37    17    19 ar  
    38    18    20 ar  
    39    18   129 1   
    40    19    21 ar  
    41    19   130 1   
    42    20    22 ar  
    43    21    22 ar  
    44    21   131 1   
    45    22    23 1   
    46    23    36 1   
    47    24    25 1   
    48    24   132 1   
    49    25    26 1   
    50    25   105 1   
    51    25   133 1   
    52    26    27 2   
    53    26    28 1   
    54    28    29 1   
    55    28   134 1   
    56    29    30 1   
    57    29    32 1   
    58    29   135 1   
    59    30    31 2   
    60    30    39 1   
    61    32    33 ar  
    62    32    34 ar  
    63    33    35 ar  
    64    33   136 1   
    65    34    36 ar  
    66    34   137 1   
    67    35    37 ar  
    68    35    62 1   
    69    36    37 ar  
    70    37    38 1   
    71    38    86 1   
    72    39    40 1   
    73    39   138 1   
    74    40    41 1   
    75    40    43 1   
    76    40   139 1   
    77    41    42 2   
    78    41    50 1   
    79    43    44 ar  
    80    43    45 ar  
    81    44    46 ar  
    82    44   140 1   
    83    45    47 ar  
    84    45   141 1   
    85    46    48 ar  
    86    46    68 1   
    87    47    48 ar  
    88    47   142 1   
    89    48    49 1   
    90    49   143 1   
    91    50    51 1   
    92    50   144 1   
    93    51    52 1   
    94    51    54 1   
    95    51   145 1   
    96    52    53 2   
    97    52    63 1   
    98    54    55 1   
    99    54    56 1   
   100    54   146 1   
   101    55    76 1   
   102    56    57 ar  
   103    56    58 ar  
   104    57    59 ar  
   105    57   147 1   
   106    58    60 ar  
   107    58   148 1   
   108    59    61 ar  
   109    59   149 1   
   110    60    61 ar  
   111    60   150 1   
   112    61    62 1   
   113    63    64 1   
   114    63   151 1   
   115    64    65 1   
   116    64    67 1   
   117    64   152 1   
   118    65    66 1   
   119    65    75 1   
   120    67    68 ar  
   121    67    69 ar  
   122    68    70 ar  
   123    69    72 ar  
   124    69   153 1   
   125    70    71 ar  
   126    70    74 1   
   127    71    72 ar  
   128    71   154 1   
   129    72    73 1   
   130    73   155 1   
   131    74   156 1   
   132    76    77 1   
   133    76    81 1   
   134    76   157 1   
   135    77    78 1   
   136    77   158 1   
   137    77   159 1   
   138    78    79 1   
   139    78    82 1   
   140    78    83 1   
   141    79    80 1   
   142    79    84 1   
   143    79   160 1   
   144    80    81 1   
   145    80    85 1   
   146    80   161 1   
   147    82   162 1   
   148    82   163 1   
   149    82   164 1   
   150    83   165 1   
   151    83   166 1   
   152    84   167 1   
   153    85   168 1   
   154    85   169 1   
   155    85   170 1   
   156    86    87 1   
   157    86    91 1   
   158    86   171 1   
   159    87    88 1   
   160    87    92 1   
   161    87   172 1   
   162    88    89 1   
   163    88    93 1   
   164    88   173 1   
   165    89    90 1   
   166    89    94 1   
   167    89   174 1   
   168    90    91 1   
   169    90   109 1   
   170    90   175 1   
   171    92    95 1   
   172    93   176 1   
   173    94   177 1   
   174    95    96 1   
   175    95   100 1   
   176    95   178 1   
   177    96    97 1   
   178    96   101 1   
   179    96   179 1   
   180    97    98 1   
   181    97   102 1   
   182    97   180 1   
   183    98    99 1   
   184    98   103 1   
   185    98   181 1   
   186    99   100 1   
   187    99   104 1   
   188    99   182 1   
   189   101   183 1   
   190   102   184 1   
   191   103   185 1   
   192   104   186 1   
   193   104   187 1   
   194   104   188 1   
   195   105   106 1   
   196   105   189 1   
   197   105   190 1   
   198   106   107 2   
   199   106   108 1   
   200   108   191 1   
   201   108   192 1   
   202   109   110 1   
   203   109   193 1   
   204   109   194 1   
   205   110   195 1   
@<TRIPOS>SUBSTRUCTURE
     1 DPI         1 TEMP              0 ****  ****    0 ROOT
