@<TRIPOS>MOLECULE
DPJ
   20    19     1     0     0
SMALL
bcc


@<TRIPOS>ATOM
      1 O4           0.0020    -0.4550     1.8310 oh         1 DPJ      -0.704400
      2 P2          -0.0070    -0.3490     0.2330 p5         1 DPJ       1.210200
      3 S1          -0.0070    -2.1150    -0.5340 s          1 DPJ      -0.574000
      4 O3          -1.2040     0.6230    -0.1700 os         1 DPJ      -0.553200
      5 C7          -2.5670     0.1570    -0.1380 c3         1 DPJ       0.181400
      6 C9          -3.4690     1.3130    -0.4890 c3         1 DPJ      -0.096100
      7 O5           1.1830     0.6270    -0.1800 os         1 DPJ      -0.553200
      8 C6           2.5480     0.1650    -0.1600 c3         1 DPJ       0.181400
      9 C8           3.4450     1.3320    -0.4880 c3         1 DPJ      -0.096100
     10 H91         -3.3790     2.1240     0.2330 hc         1 DPJ       0.052033
     11 H92         -3.2510     1.7030    -1.4840 hc         1 DPJ       0.052033
     12 H93         -4.5030     0.9700    -0.4830 hc         1 DPJ       0.052033
     13 H71         -2.6810    -0.6610    -0.8520 h1         1 DPJ       0.055200
     14 H72         -2.8030    -0.2260     0.8580 h1         1 DPJ       0.055200
     15 HO4          0.0040     0.3960     2.2960 ho         1 DPJ       0.469000
     16 H61          2.7880    -0.2370     0.8270 h1         1 DPJ       0.055200
     17 H62          2.6640    -0.6370    -0.8910 h1         1 DPJ       0.055200
     18 H81          3.2250     1.7400    -1.4750 hc         1 DPJ       0.052033
     19 H82          3.3520     2.1280     0.2500 hc         1 DPJ       0.052033
     20 H83          4.4810     0.9940    -0.4880 hc         1 DPJ       0.052033
@<TRIPOS>BOND
     1     1     2 1   
     2     1    15 1   
     3     2     3 2   
     4     2     4 1   
     5     2     7 1   
     6     4     5 1   
     7     5     6 1   
     8     5    13 1   
     9     5    14 1   
    10     6    10 1   
    11     6    11 1   
    12     6    12 1   
    13     7     8 1   
    14     8     9 1   
    15     8    16 1   
    16     8    17 1   
    17     9    18 1   
    18     9    19 1   
    19     9    20 1   
@<TRIPOS>SUBSTRUCTURE
     1 DPJ         1 TEMP              0 ****  ****    0 ROOT
