@<TRIPOS>MOLECULE
DPJ
   20    19     1     0     0
SMALL
No Charge or Current Charge


@<TRIPOS>ATOM
      1 O4          -0.9690    -0.5420     2.1030 oh         1 DPJ      -0.503400
      2 P2          -0.0740    -1.0120     0.8560 p5         1 DPJ       1.210200
      3 S1           0.7820    -2.7540     1.0930 s          1 DPJ      -0.574000
      4 O3          -1.1030    -0.8670    -0.3980 os         1 DPJ      -0.376400
      5 C7          -2.2460     0.0100    -0.4900 c3         1 DPJ       0.004600
      6 C9          -1.7900     1.4850    -0.4930 c3         1 DPJ      -0.096100
      7 O5           0.9020     0.2650     0.6570 os         1 DPJ      -0.376400
      8 C6           2.0170     0.2250    -0.2440 c3         1 DPJ       0.004600
      9 C8           2.3620     1.6770    -0.6120 c3         1 DPJ      -0.096100
     10 H91         -1.3710     1.7870     0.4730 hc         1 DPJ       0.052033
     11 H92         -1.0380     1.6550    -1.2730 hc         1 DPJ       0.052033
     12 H93         -2.6450     2.1390    -0.7020 hc         1 DPJ       0.052033
     13 H71         -2.7880    -0.1920    -1.4230 h1         1 DPJ       0.055200
     14 H72         -2.9460    -0.1640     0.3380 h1         1 DPJ       0.055200
     15 HO4         -1.2790     0.3430     1.8550 ho         1 DPJ       0.268000
     16 H61          2.8840    -0.2510     0.2320 h1         1 DPJ       0.055200
     17 H62          1.7700    -0.3330    -1.1580 h1         1 DPJ       0.055200
     18 H81          1.5140     2.1650    -1.1060 hc         1 DPJ       0.052033
     19 H82          2.6220     2.2520     0.2850 hc         1 DPJ       0.052033
     20 H83          3.2190     1.7030    -1.2960 hc         1 DPJ       0.052033
@<TRIPOS>BOND
     1     1     2 1   
     2     1    15 1   
     3     2     3 2   
     4     2     4 1   
     5     2     7 1   
     6     4     5 1   
     7     5     6 1   
     8     5    13 1   
     9     5    14 1   
    10     6    10 1   
    11     6    11 1   
    12     6    12 1   
    13     7     8 1   
    14     8     9 1   
    15     8    16 1   
    16     8    17 1   
    17     9    18 1   
    18     9    19 1   
    19     9    20 1   
@<TRIPOS>SUBSTRUCTURE
     1 DPJ         1 TEMP              0 ****  ****    0 ROOT
