@<TRIPOS>MOLECULE
DPK
   33    33     1     0     0
SMALL
No Charge or Current Charge


@<TRIPOS>ATOM
      1 C12          3.6920     2.2370     0.2690 c2         1 DPK      -0.325000
      2 C11          2.4590     1.7290     0.0980 c2         1 DPK      -0.211200
      3 C10          2.1360     0.3470    -0.4300 c3         1 DPK       0.204000
      4 N9           1.3580    -0.4460     0.5530 n3         1 DPK      -0.727600
      5 C9N          2.1060    -0.6990     1.8110 c3         1 DPK       0.163100
      6 C8           0.6940    -1.6670     0.0010 c3         1 DPK       0.192500
      7 C8C          1.6920    -2.7260    -0.5350 c3         1 DPK      -0.124100
      8 C7          -0.4040    -1.3630    -1.0590 c3         1 DPK      -0.025100
      9 C1          -1.4660    -0.3790    -0.5740 ca         1 DPK      -0.062300
     10 C6          -1.5260     0.9270    -1.1020 ca         1 DPK      -0.100500
     11 C5          -2.5090     1.8280    -0.6560 ca         1 DPK      -0.112500
     12 C4          -3.4390     1.4300     0.3180 ca         1 DPK      -0.113000
     13 C3          -3.3860     0.1290     0.8470 ca         1 DPK      -0.112500
     14 C2          -2.4040    -0.7720     0.4010 ca         1 DPK      -0.100500
     15 H121         4.5880     1.6630     0.0290 ha         1 DPK       0.160500
     16 H122         3.8440     3.2450     0.6580 ha         1 DPK       0.160500
     17 H11          1.5740     2.3170     0.3470 ha         1 DPK       0.177000
     18 H101         3.0680    -0.1750    -0.6880 h1         1 DPK       0.033700
     19 H102         1.5720     0.4750    -1.3620 h1         1 DPK       0.033700
     20 H9N1         2.3890     0.2430     2.2980 h1         1 DPK       0.029367
     21 H9N2         1.4900    -1.2660     2.5220 h1         1 DPK       0.029367
     22 H9N3         3.0240    -1.2700     1.6180 h1         1 DPK       0.029367
     23 H8           0.1610    -2.1530     0.8320 h1         1 DPK       0.057700
     24 H8C1         2.4110    -3.0230     0.2370 hc         1 DPK       0.037700
     25 H8C2         1.1570    -3.6290    -0.8500 hc         1 DPK       0.037700
     26 H8C3         2.2480    -2.3450    -1.3990 hc         1 DPK       0.037700
     27 H7C1         0.0620    -1.0040    -1.9850 hc         1 DPK       0.045700
     28 H7C2        -0.8940    -2.3060    -1.3300 hc         1 DPK       0.045700
     29 H6          -0.8100     1.2460    -1.8550 ha         1 DPK       0.107500
     30 H5          -2.5480     2.8350    -1.0660 ha         1 DPK       0.108500
     31 H4          -4.1990     2.1280     0.6630 ha         1 DPK       0.109000
     32 H3          -4.1060    -0.1810     1.6010 ha         1 DPK       0.108500
     33 H2          -2.3710    -1.7780     0.8150 ha         1 DPK       0.107500
@<TRIPOS>BOND
     1     1     2 2   
     2     1    15 1   
     3     1    16 1   
     4     2     3 1   
     5     2    17 1   
     6     3     4 1   
     7     3    18 1   
     8     3    19 1   
     9     4     5 1   
    10     4     6 1   
    11     5    20 1   
    12     5    21 1   
    13     5    22 1   
    14     6     7 1   
    15     6     8 1   
    16     6    23 1   
    17     7    24 1   
    18     7    25 1   
    19     7    26 1   
    20     8     9 1   
    21     8    27 1   
    22     8    28 1   
    23     9    10 ar  
    24     9    14 ar  
    25    10    11 ar  
    26    10    29 1   
    27    11    12 ar  
    28    11    30 1   
    29    12    13 ar  
    30    12    31 1   
    31    13    14 ar  
    32    13    32 1   
    33    14    33 1   
@<TRIPOS>SUBSTRUCTURE
     1 DPK         1 TEMP              0 ****  ****    0 ROOT
