@<TRIPOS>MOLECULE
DPK
   33    33     1     0     0
SMALL
abcg2


@<TRIPOS>ATOM
      1 C12          3.6690     2.2330     0.0270 c2         1 DPK      -0.325000
      2 C11          2.4840     1.6620    -0.1430 c2         1 DPK      -0.211200
      3 C10          2.2730     0.2100    -0.4430 c3         1 DPK       0.204000
      4 N9           1.3460    -0.3960     0.4930 n3         1 DPK      -0.727600
      5 C9N          1.9310    -0.5450     1.8060 c3         1 DPK       0.163100
      6 C8           0.7030    -1.6130     0.0130 c3         1 DPK       0.192500
      7 C8C          1.6630    -2.6890    -0.4980 c3         1 DPK      -0.124100
      8 C7          -0.3680    -1.3050    -1.0450 c3         1 DPK      -0.025100
      9 C1          -1.4380    -0.3810    -0.5430 ca         1 DPK      -0.062300
     10 C6          -1.3590     0.9940    -0.7470 ca         1 DPK      -0.100500
     11 C5          -2.3380     1.8480    -0.2560 ca         1 DPK      -0.112500
     12 C4          -3.4160     1.3370     0.4570 ca         1 DPK      -0.113000
     13 C3          -3.5060    -0.0320     0.6690 ca         1 DPK      -0.112500
     14 C2          -2.5260    -0.8800     0.1710 ca         1 DPK      -0.100500
     15 H121         4.5880     1.6590    -0.0180 ha         1 DPK       0.160500
     16 H122         3.7680     3.2950     0.2140 ha         1 DPK       0.160500
     17 H11          1.5820     2.2640    -0.0820 ha         1 DPK       0.177000
     18 H101         3.2490    -0.3040    -0.4750 h1         1 DPK       0.033700
     19 H102         1.8560     0.1300    -1.4510 h1         1 DPK       0.033700
     20 H9N1         2.2760     0.4210     2.1750 h1         1 DPK       0.029367
     21 H9N2         1.1830    -0.9160     2.5080 h1         1 DPK       0.029367
     22 H9N3         2.7930    -1.2300     1.8400 h1         1 DPK       0.029367
     23 H8           0.1710    -2.0260     0.8770 h1         1 DPK       0.057700
     24 H8C1         2.4620    -2.8850     0.2170 hc         1 DPK       0.037700
     25 H8C2         1.1310    -3.6270    -0.6620 hc         1 DPK       0.037700
     26 H8C3         2.1240    -2.4040    -1.4460 hc         1 DPK       0.037700
     27 H7C1         0.0950    -0.8910    -1.9450 hc         1 DPK       0.045700
     28 H7C2        -0.8140    -2.2560    -1.3480 hc         1 DPK       0.045700
     29 H6          -0.5250     1.4030    -1.3030 ha         1 DPK       0.107500
     30 H5          -2.2590     2.9140    -0.4300 ha         1 DPK       0.108500
     31 H4          -4.1810     2.0010     0.8400 ha         1 DPK       0.109000
     32 H3          -4.3450    -0.4430     1.2170 ha         1 DPK       0.108500
     33 H2          -2.6100    -1.9490     0.3380 ha         1 DPK       0.107500
@<TRIPOS>BOND
     1     1     2 2   
     2     1    15 1   
     3     1    16 1   
     4     2     3 1   
     5     2    17 1   
     6     3     4 1   
     7     3    18 1   
     8     3    19 1   
     9     4     5 1   
    10     4     6 1   
    11     5    20 1   
    12     5    21 1   
    13     5    22 1   
    14     6     7 1   
    15     6     8 1   
    16     6    23 1   
    17     7    24 1   
    18     7    25 1   
    19     7    26 1   
    20     8     9 1   
    21     8    27 1   
    22     8    28 1   
    23     9    10 ar  
    24     9    14 ar  
    25    10    11 ar  
    26    10    29 1   
    27    11    12 ar  
    28    11    30 1   
    29    12    13 ar  
    30    12    31 1   
    31    13    14 ar  
    32    13    32 1   
    33    14    33 1   
@<TRIPOS>SUBSTRUCTURE
     1 DPK         1 TEMP              0 ****  ****    0 ROOT
