@<TRIPOS>MOLECULE
DPM
   50    51     1     0     0
SMALL
bcc


@<TRIPOS>ATOM
      1 C1A          2.7110     2.5820     0.1910 cc         1 DPM      -0.163600
      2 C2A          3.4550     1.4570    -0.0770 cd         1 DPM      -0.073300
      3 C3A          2.6480     0.6000    -0.8840 cd         1 DPM      -0.158300
      4 C4A          1.4410     1.2270    -1.0780 cc         1 DPM      -0.095600
      5 C5A          4.8370     1.1500     0.3970 c3         1 DPM      -0.129100
      6 C6A          4.9090     0.5350     1.8120 c          1 DPM       0.934600
      7 C7A          2.9890    -0.7730    -1.3580 c3         1 DPM       0.023900
      8 C8A          2.9050    -1.8350    -0.2490 c3         1 DPM      -0.208400
      9 C9A          2.5820    -3.2320    -0.7900 c          1 DPM       0.921600
     10 CHA          3.0410     3.7940     0.9870 c3         1 DPM       0.012200
     11 NA           1.4970     2.4230    -0.4190 na         1 DPM      -0.167100
     12 O1A          4.2120     1.0730     2.6920 o          1 DPM      -0.856800
     13 O2A          5.6890    -0.4280     1.9710 o          1 DPM      -0.856800
     14 O3A          1.5050    -3.3290    -1.4390 o          1 DPM      -0.874300
     15 O4A          3.3660    -4.1680    -0.5590 o          1 DPM      -0.874300
     16 C1B         -0.7100    -0.0750    -0.9690 cc         1 DPM      -0.127600
     17 C2B         -1.8480     0.2910    -0.2810 cd         1 DPM      -0.097300
     18 C3B         -2.3450    -0.8830     0.3620 cd         1 DPM      -0.169300
     19 C4B         -1.4830    -1.9030     0.0360 cc         1 DPM      -0.191300
     20 C5B         -2.4560     1.6540    -0.2050 c3         1 DPM      -0.121100
     21 C6B         -3.3580     2.0510    -1.3940 c          1 DPM       0.930600
     22 C7B         -3.5820    -1.0020     1.1980 c3         1 DPM       0.033900
     23 C8B         -4.8710    -0.8680     0.3920 c3         1 DPM      -0.202400
     24 C9B         -6.1810    -1.0410     1.1780 c          1 DPM       0.925600
     25 CHB          0.2110     0.7670    -1.7960 c3         1 DPM       0.071200
     26 NB          -0.5040    -1.4080    -0.7710 na         1 DPM      -0.155100
     27 O1B         -2.9710     1.7260    -2.5340 o          1 DPM      -0.869800
     28 O2B         -4.3860     2.7060    -1.1240 o          1 DPM      -0.869800
     29 O3B         -6.1060    -1.3150     2.3930 o          1 DPM      -0.890800
     30 O4B         -7.2350    -0.8930     0.5220 o          1 DPM      -0.890800
     31 H5A1         5.3380     0.4900    -0.3160 hc         1 DPM       0.004200
     32 H5A2         5.4350     2.0700     0.4200 hc         1 DPM       0.004200
     33 H7A1         2.3120    -1.0500    -2.1690 hc         1 DPM       0.015700
     34 H7A2         3.9950    -0.7920    -1.7920 hc         1 DPM       0.015700
     35 H8A1         3.8250    -1.8270     0.3410 hc         1 DPM       0.055700
     36 H8A2         2.0970    -1.5560     0.4350 hc         1 DPM       0.055700
     37 HCA1         2.9940     4.7100     0.3910 hc         1 DPM       0.013700
     38 HCA2         2.3630     3.9250     1.8330 hc         1 DPM       0.013700
     39 HCA3         4.0450     3.7100     1.3950 hc         1 DPM       0.013700
     40 H10          0.7570     3.1060    -0.4120 hn         1 DPM       0.274700
     41 H4B1        -1.5010    -2.9450     0.3180 h4         1 DPM       0.134000
     42 H5B1        -3.0190     1.7550     0.7260 hc         1 DPM       0.009200
     43 H5B2        -1.6660     2.4140    -0.1480 hc         1 DPM       0.009200
     44 H7B1        -3.5750    -1.9660     1.7140 hc         1 DPM       0.015700
     45 H7B2        -3.5780    -0.2460     1.9900 hc         1 DPM       0.015700
     46 H8B1        -4.9000     0.1070    -0.1040 hc         1 DPM       0.042200
     47 H8B2        -4.8610    -1.5990    -0.4250 hc         1 DPM       0.042200
     48 HCB1        -0.3570     1.6240    -2.1640 hc         1 DPM       0.051200
     49 HCB2         0.5100     0.2120    -2.6910 hc         1 DPM       0.051200
     50 H22          0.2800    -1.9780    -1.1130 hn         1 DPM       0.350700
@<TRIPOS>BOND
     1     1     2 2   
     2     1    10 1   
     3     1    11 1   
     4     2     3 1   
     5     2     5 1   
     6     3     4 2   
     7     3     7 1   
     8     4    11 1   
     9     4    25 1   
    10     5     6 1   
    11     5    31 1   
    12     5    32 1   
    13     6    12 1   
    14     6    13 1   
    15     7     8 1   
    16     7    33 1   
    17     7    34 1   
    18     8     9 1   
    19     8    35 1   
    20     8    36 1   
    21     9    14 1   
    22     9    15 1   
    23    10    37 1   
    24    10    38 1   
    25    10    39 1   
    26    11    40 1   
    27    16    17 2   
    28    16    25 1   
    29    16    26 1   
    30    17    18 1   
    31    17    20 1   
    32    18    19 2   
    33    18    22 1   
    34    19    26 1   
    35    19    41 1   
    36    20    21 1   
    37    20    42 1   
    38    20    43 1   
    39    21    27 1   
    40    21    28 1   
    41    22    23 1   
    42    22    44 1   
    43    22    45 1   
    44    23    24 1   
    45    23    46 1   
    46    23    47 1   
    47    24    29 1   
    48    24    30 1   
    49    25    48 1   
    50    25    49 1   
    51    26    50 1   
@<TRIPOS>SUBSTRUCTURE
     1 DPM         1 TEMP              0 ****  ****    0 ROOT
