@<TRIPOS>MOLECULE
DPM
   50    51     1     0     0
SMALL
No Charge or Current Charge


@<TRIPOS>ATOM
      1 C1A          2.7800     2.4830     0.4370 cc         1 DPM      -0.214300
      2 C2A          3.4890     1.3440     0.1370 cd         1 DPM      -0.073300
      3 C3A          2.7070     0.5670    -0.7710 cd         1 DPM      -0.158300
      4 C4A          1.5210     1.2240    -1.0020 cc         1 DPM      -0.146300
      5 C5A          4.8720     0.9950     0.6670 c3         1 DPM      -0.129100
      6 C6A          4.8580     0.5370     2.1470 c          1 DPM       0.724000
      7 C7A          3.0870    -0.7700    -1.3740 c3         1 DPM       0.023900
      8 C8A          2.7270    -1.9560    -0.4500 c3         1 DPM      -0.208400
      9 C9A          2.3260    -3.1670    -1.2920 c          1 DPM       0.711000
     10 CHA          3.1430     3.6450     1.3260 c3         1 DPM       0.012200
     11 NA           1.5750     2.3930    -0.2520 na         1 DPM      -0.116000
     12 O1A          4.9760     1.3830     3.0230 o          1 DPM      -0.751500
     13 O2A          4.6680    -0.6470     2.3900 o          1 DPM      -0.751500
     14 O3A          1.1560    -3.2510    -1.6330 o          1 DPM      -0.769000
     15 O4A          3.1930    -3.9550    -1.6360 o          1 DPM      -0.769000
     16 C1B         -0.7510     0.1080    -1.1590 cc         1 DPM      -0.178300
     17 C2B         -1.9200     0.5790    -0.6060 cd         1 DPM      -0.097300
     18 C3B         -2.6260    -0.5230    -0.0450 cd         1 DPM      -0.169300
     19 C4B         -1.8950    -1.6620    -0.2700 cc         1 DPM      -0.224000
     20 C5B         -2.3770     2.0300    -0.5760 c3         1 DPM      -0.121100
     21 C6B         -3.2030     2.4270    -1.8250 c          1 DPM       0.720000
     22 C7B         -3.9580    -0.4360     0.6770 c3         1 DPM       0.033900
     23 C8B         -4.5080    -1.7930     1.1800 c3         1 DPM      -0.202400
     24 C9B         -5.8510    -1.5810     1.8930 c          1 DPM       0.715000
     25 CHB          0.3480     0.8520    -1.8820 c3         1 DPM       0.071200
     26 NB          -0.7510    -1.2720    -0.9580 na         1 DPM      -0.104000
     27 O1B         -2.6080     2.8270    -2.8160 o          1 DPM      -0.764500
     28 O2B         -4.4140     2.2570    -1.8040 o          1 DPM      -0.764500
     29 O3B         -5.8410    -1.3470     3.0910 o          1 DPM      -0.785500
     30 O4B         -6.8750    -1.6270     1.2280 o          1 DPM      -0.785500
     31 H5A1         5.2630     0.1820     0.0470 hc         1 DPM       0.004200
     32 H5A2         5.4740     1.9080     0.5720 hc         1 DPM       0.004200
     33 H7A1         2.5760    -0.8920    -2.3350 hc         1 DPM       0.015700
     34 H7A2         4.1540    -0.8070    -1.6220 hc         1 DPM       0.015700
     35 H8A1         3.6240    -2.1700     0.1420 hc         1 DPM       0.055700
     36 H8A2         1.8720    -1.6300     0.1520 hc         1 DPM       0.055700
     37 HCA1         2.5570     4.5360     1.0680 hc         1 DPM       0.013700
     38 HCA2         2.9460     3.4070     2.3770 hc         1 DPM       0.013700
     39 HCA3         4.2030     3.9050     1.2260 hc         1 DPM       0.013700
     40 H10          0.8350     3.0850    -0.2160 hn         1 DPM       0.325000
     41 H4B1        -2.0860    -2.6940    -0.0040 h4         1 DPM       0.116000
     42 H5B1        -2.9930     2.1500     0.3230 hc         1 DPM       0.009200
     43 H5B2        -1.4670     2.6400    -0.5310 hc         1 DPM       0.009200
     44 H7B1        -3.8600     0.2380     1.5370 hc         1 DPM       0.015700
     45 H7B2        -4.7030     0.0170     0.0120 hc         1 DPM       0.015700
     46 H8B1        -4.6450    -2.4140     0.2870 hc         1 DPM       0.042200
     47 H8B2        -3.7620    -2.1790     1.8840 hc         1 DPM       0.042200
     48 HCB1        -0.0610     1.7630    -2.3330 hc         1 DPM       0.051200
     49 HCB2         0.6890     0.2540    -2.7340 hc         1 DPM       0.051200
     50 H22         -0.0120    -1.9150    -1.2660 hn         1 DPM       0.401000
@<TRIPOS>BOND
     1     1     2 2   
     2     1    10 1   
     3     1    11 1   
     4     2     3 1   
     5     2     5 1   
     6     3     4 2   
     7     3     7 1   
     8     4    11 1   
     9     4    25 1   
    10     5     6 1   
    11     5    31 1   
    12     5    32 1   
    13     6    12 1   
    14     6    13 1   
    15     7     8 1   
    16     7    33 1   
    17     7    34 1   
    18     8     9 1   
    19     8    35 1   
    20     8    36 1   
    21     9    14 1   
    22     9    15 1   
    23    10    37 1   
    24    10    38 1   
    25    10    39 1   
    26    11    40 1   
    27    16    17 2   
    28    16    25 1   
    29    16    26 1   
    30    17    18 1   
    31    17    20 1   
    32    18    19 2   
    33    18    22 1   
    34    19    26 1   
    35    19    41 1   
    36    20    21 1   
    37    20    42 1   
    38    20    43 1   
    39    21    27 1   
    40    21    28 1   
    41    22    23 1   
    42    22    44 1   
    43    22    45 1   
    44    23    24 1   
    45    23    46 1   
    46    23    47 1   
    47    24    29 1   
    48    24    30 1   
    49    25    48 1   
    50    25    49 1   
    51    26    50 1   
@<TRIPOS>SUBSTRUCTURE
     1 DPM         1 TEMP              0 ****  ****    0 ROOT
