@<TRIPOS>MOLECULE
DPN
   22    22     1     0     0
SMALL
bcc


@<TRIPOS>ATOM
      1 N           -1.1030     1.4780     0.8830 n8         1 DPN      -0.884800
      2 CA          -1.3450     0.1180     0.4360 c3         1 DPN       0.016500
      3 C           -2.8160    -0.2250     0.0800 c          1 DPN       0.902600
      4 O           -3.6520     0.6980     0.1140 o          1 DPN      -0.838800
      5 OXT         -3.0400    -1.4190    -0.2120 o          1 DPN      -0.838800
      6 CB          -0.4360    -0.2070    -0.7580 c3         1 DPN      -0.024100
      7 CG           1.0250    -0.1570    -0.4210 ca         1 DPN      -0.029300
      8 CD1          1.6640    -1.2810     0.1000 ca         1 DPN      -0.124500
      9 CD2          1.7760     1.0040    -0.5960 ca         1 DPN      -0.124500
     10 CE1          3.0100    -1.2510     0.4370 ca         1 DPN      -0.140500
     11 CE2          3.1240     1.0400    -0.2660 ca         1 DPN      -0.140500
     12 CZ           3.7470    -0.0880     0.2540 ca         1 DPN      -0.158000
     13 H           -1.4070     2.1130     0.1530 hn         1 DPN       0.325300
     14 H2          -1.7220     1.6770     1.6590 hn         1 DPN       0.325300
     15 HA          -1.0560    -0.5540     1.2550 h1         1 DPN       0.043700
     16 HB2         -0.6930    -1.2020    -1.1230 hc         1 DPN       0.050700
     17 HB3         -0.6550     0.4970    -1.5690 hc         1 DPN       0.050700
     18 HD1          1.0980    -2.1960     0.2390 ha         1 DPN       0.130000
     19 HD2          1.3000     1.8880    -1.0020 ha         1 DPN       0.130000
     20 HE1          3.4850    -2.1380     0.8370 ha         1 DPN       0.110500
     21 HE2          3.6910     1.9500    -0.4160 ha         1 DPN       0.110500
     22 HZ           4.7990    -0.0610     0.5090 ha         1 DPN       0.108000
@<TRIPOS>BOND
     1     1     2 1   
     2     1    13 1   
     3     1    14 1   
     4     2     3 1   
     5     2     6 1   
     6     2    15 1   
     7     3     4 1   
     8     3     5 1   
     9     6     7 1   
    10     6    16 1   
    11     6    17 1   
    12     7     8 ar  
    13     7     9 ar  
    14     8    10 ar  
    15     8    18 1   
    16     9    11 ar  
    17     9    19 1   
    18    10    12 ar  
    19    10    20 1   
    20    11    12 ar  
    21    11    21 1   
    22    12    22 1   
@<TRIPOS>SUBSTRUCTURE
     1 DPN         1 TEMP              0 ****  ****    0 ROOT
