@<TRIPOS>MOLECULE
DPN
   22    22     1     0     0
SMALL
No Charge or Current Charge


@<TRIPOS>ATOM
      1 N           -1.1600     1.3120     1.1770 n8         1 DPN      -0.884800
      2 CA          -1.3830     0.0240     0.4120 c3         1 DPN       0.016500
      3 C           -2.8730    -0.2910    -0.0420 c          1 DPN       0.902600
      4 O           -3.5000     0.5700    -0.6540 o          1 DPN      -0.838800
      5 OXT         -3.3920    -1.3390     0.3290 o          1 DPN      -0.838800
      6 CB          -0.4270    -0.0680    -0.8080 c3         1 DPN      -0.024100
      7 CG           1.0560    -0.0670    -0.4390 ca         1 DPN      -0.029300
      8 CD1          1.6270    -1.1860     0.2010 ca         1 DPN      -0.124500
      9 CD2          1.8740     1.0370    -0.7560 ca         1 DPN      -0.124500
     10 CE1          2.9950    -1.1970     0.5270 ca         1 DPN      -0.140500
     11 CE2          3.2420     1.0250    -0.4290 ca         1 DPN      -0.140500
     12 CZ           3.8020    -0.0920     0.2120 ca         1 DPN      -0.158000
     13 H           -1.5150     2.0920     0.6140 hn         1 DPN       0.325300
     14 H2          -1.7570     1.3160     2.0110 hn         1 DPN       0.325300
     15 HA          -1.1050    -0.7900     1.0960 h1         1 DPN       0.043700
     16 HB2         -0.6530    -0.9900    -1.3570 hc         1 DPN       0.050700
     17 HB3         -0.6510     0.7520    -1.5030 hc         1 DPN       0.050700
     18 HD1          1.0100    -2.0480     0.4440 ha         1 DPN       0.130000
     19 HD2          1.4480     1.9060    -1.2530 ha         1 DPN       0.130000
     20 HE1          3.4290    -2.0640     1.0230 ha         1 DPN       0.110500
     21 HE2          3.8660     1.8820    -0.6750 ha         1 DPN       0.110500
     22 HZ           4.8610    -0.1000     0.4640 ha         1 DPN       0.108000
@<TRIPOS>BOND
     1     1     2 1   
     2     1    13 1   
     3     1    14 1   
     4     2     3 1   
     5     2     6 1   
     6     2    15 1   
     7     3     4 1   
     8     3     5 1   
     9     6     7 1   
    10     6    16 1   
    11     6    17 1   
    12     7     8 ar  
    13     7     9 ar  
    14     8    10 ar  
    15     8    18 1   
    16     9    11 ar  
    17     9    19 1   
    18    10    12 ar  
    19    10    20 1   
    20    11    12 ar  
    21    11    21 1   
    22    12    22 1   
@<TRIPOS>SUBSTRUCTURE
     1 DPN         1 TEMP              0 ****  ****    0 ROOT
