@<TRIPOS>MOLECULE
DPP
   14    13     1     0     0
SMALL
bcc


@<TRIPOS>ATOM
      1 N            5.0740    19.8140    15.3920 n8         1 DPP      -0.878800
      2 CA           3.9270    20.3160    16.1320 c3         1 DPP       0.032500
      3 C            2.6300    20.1930    15.2930 c          1 DPP       0.934600
      4 O            2.6230    19.3190    14.4050 o          1 DPP      -0.839800
      5 CB           4.2030    21.7410    16.5910 c3         1 DPP       0.153800
      6 NG           5.3870    21.7890    17.4460 n8         1 DPP      -0.894800
      7 OXT          1.6830    20.9430    15.6060 o          1 DPP      -0.839800
      8 H            5.8610    19.7280    16.0210 hn         1 DPP       0.326300
      9 H2           4.8620    18.8890    15.0440 hn         1 DPP       0.326300
     10 HA           3.7330    19.7240    17.0490 h1         1 DPP      -0.018300
     11 HB2          4.3940    22.3650    15.7120 h1         1 DPP       0.040200
     12 HB3          3.3040    22.1360    17.0740 h1         1 DPP       0.040200
     13 HG1          5.5900    22.7520    17.6830 hn         1 DPP       0.308300
     14 HG2          5.1720    21.3350    18.3260 hn         1 DPP       0.308300
@<TRIPOS>BOND
     1     1     2 1   
     2     1     8 1   
     3     1     9 1   
     4     2     3 1   
     5     2     5 1   
     6     2    10 1   
     7     3     4 1   
     8     3     7 1   
     9     5     6 1   
    10     5    11 1   
    11     5    12 1   
    12     6    13 1   
    13     6    14 1   
@<TRIPOS>SUBSTRUCTURE
     1 DPP         1 TEMP              0 ****  ****    0 ROOT
