@<TRIPOS>MOLECULE
DPP
   14    13     1     0     0
SMALL
No Charge or Current Charge


@<TRIPOS>ATOM
      1 N            5.1690    19.8980    15.1780 n8         1 DPP      -0.878800
      2 CA           3.9700    20.3090    16.0080 c3         1 DPP       0.032500
      3 C            2.5430    20.2260    15.3030 c          1 DPP       0.934600
      4 O            1.9430    19.1540    15.3230 o          1 DPP      -0.839800
      5 CB           4.1880    21.7190    16.6300 c3         1 DPP       0.153800
      6 NG           5.3290    21.7510    17.5820 n8         1 DPP      -0.894800
      7 OXT          2.0730    21.2230    14.7590 o          1 DPP      -0.839800
      8 H            6.0090    20.0300    15.7500 hn         1 DPP       0.326300
      9 H2           5.1270    18.8880    15.0030 hn         1 DPP       0.326300
     10 HA           3.9390    19.5970    16.8460 h1         1 DPP      -0.018300
     11 HB2          4.3620    22.4590    15.8360 h1         1 DPP       0.040200
     12 HB3          3.2830    22.0130    17.1790 h1         1 DPP       0.040200
     13 HG1          5.3700    22.6740    18.0250 hn         1 DPP       0.308300
     14 HG2          5.1390    21.1010    18.3510 hn         1 DPP       0.308300
@<TRIPOS>BOND
     1     1     2 1   
     2     1     8 1   
     3     1     9 1   
     4     2     3 1   
     5     2     5 1   
     6     2    10 1   
     7     3     4 1   
     8     3     7 1   
     9     5     6 1   
    10     5    11 1   
    11     5    12 1   
    12     6    13 1   
    13     6    14 1   
@<TRIPOS>SUBSTRUCTURE
     1 DPP         1 TEMP              0 ****  ****    0 ROOT
