@<TRIPOS>MOLECULE
DPQ
   24    24     1     0     0
SMALL
abcg2


@<TRIPOS>ATOM
      1 OE2         -3.2520    -1.6310    25.5390 o          1 DPQ      -0.591100
      2 N            0.0600     3.0720    26.2300 n8         1 DPQ      -1.009200
      3 CA          -1.1870     3.1890    26.9660 c3         1 DPQ       0.016500
      4 C           -1.4310     4.5470    27.6840 c          1 DPQ       0.696000
      5 O           -0.4960     5.3690    27.6900 o          1 DPQ      -0.725500
      6 CG          -1.2440     0.6950    27.3640 c2         1 DPQ       0.034600
      7 CD1          0.0380    -0.0490    27.4230 c6         1 DPQ      -0.032000
      8 CD2         -2.3200     0.1740    26.7440 ce         1 DPQ      -0.356200
      9 CE1          0.0560    -1.3830    26.7740 c2         1 DPQ      -0.227200
     10 CE2         -2.2890    -1.1260    26.1090 c          1 DPQ       0.558500
     11 CZ          -1.0220    -1.8830    26.1620 ce         1 DPQ      -0.015100
     12 OH          -1.0390    -3.0880    25.5650 oh         1 DPQ      -0.547100
     13 OXT         -2.5580     4.6860    28.2020 o          1 DPQ      -0.725500
     14 HA          -2.0060     3.0460    26.2520 h1         1 DPQ       0.044700
     15 HD11         0.8110     0.5970    26.9850 hc         1 DPQ       0.082700
     16 HD12         0.3380    -0.1420    28.4740 hc         1 DPQ       0.082700
     17 HE1          0.9790    -1.9500    26.8100 ha         1 DPQ       0.180000
     18 HH          -1.9300    -3.2160    25.2040 ho         1 DPQ       0.478000
     19 HD2         -3.2560     0.7210    26.7080 ha         1 DPQ       0.207000
     20 H            0.0250     3.6820    25.4230 hn         1 DPQ       0.387000
     21 CB          -1.2920     2.0510    27.9970 c3         1 DPQ      -0.042200
     22 HN2          0.8030     3.4530    26.8050 hn         1 DPQ       0.387000
     23 HB1         -0.4790     2.1510    28.7240 hc         1 DPQ       0.059200
     24 HB2         -2.2280     2.1640    28.5440 hc         1 DPQ       0.059200
@<TRIPOS>BOND
     1     1    10 2   
     2     2     3 1   
     3     2    20 1   
     4     2    22 1   
     5     3     4 1   
     6     3    14 1   
     7     3    21 1   
     8     4     5 1   
     9     4    13 1   
    10     6     7 1   
    11     6     8 2   
    12     6    21 1   
    13     7     9 1   
    14     7    15 1   
    15     7    16 1   
    16     8    10 1   
    17     8    19 1   
    18     9    11 2   
    19     9    17 1   
    20    10    11 1   
    21    11    12 1   
    22    12    18 1   
    23    21    23 1   
    24    21    24 1   
@<TRIPOS>SUBSTRUCTURE
     1 DPQ         1 TEMP              0 ****  ****    0 ROOT
