@<TRIPOS>MOLECULE
DPR
   16    16     1     0     0
SMALL
No Charge or Current Charge


@<TRIPOS>ATOM
      1 N            0.8620     1.0330     0.6080 n7         1 DPR      -0.864400
      2 CA           0.0020    -0.2150     0.5600 c5         1 DPR       0.022500
      3 CB           0.7340    -1.1780    -0.4200 c5         1 DPR      -0.085400
      4 CG           2.2060    -0.8030    -0.1410 c5         1 DPR      -0.101400
      5 CD           2.0900     0.7380    -0.1670 c5         1 DPR       0.158800
      6 C           -1.5010    -0.0220     0.0840 c          1 DPR       0.713000
      7 O           -1.8010     0.9770    -0.5610 o          1 DPR      -0.734000
      8 OXT         -2.3480    -0.8260     0.4510 o          1 DPR      -0.734000
      9 H            0.3530     1.7950     0.1340 hn         1 DPR       0.433000
     10 HA          -0.0260    -0.6660     1.5620 h1         1 DPR       0.046700
     11 HB2          0.5170    -2.2320    -0.2150 hc         1 DPR       0.039700
     12 HB3          0.4630    -0.9820    -1.4650 hc         1 DPR       0.039700
     13 HG2          2.5440    -1.1710     0.8350 hc         1 DPR       0.021700
     14 HG3          2.8940    -1.1870    -0.9020 hc         1 DPR       0.021700
     15 HD2          1.9710     1.0930    -1.2010 h1         1 DPR       0.010200
     16 HD3          2.9700     1.2350     0.2620 h1         1 DPR       0.010200
@<TRIPOS>BOND
     1     1     2 1   
     2     1     5 1   
     3     1     9 1   
     4     2     3 1   
     5     2     6 1   
     6     2    10 1   
     7     3     4 1   
     8     3    11 1   
     9     3    12 1   
    10     4     5 1   
    11     4    13 1   
    12     4    14 1   
    13     5    15 1   
    14     5    16 1   
    15     6     7 1   
    16     6     8 1   
@<TRIPOS>SUBSTRUCTURE
     1 DPR         1 TEMP              0 ****  ****    0 ROOT
