@<TRIPOS>MOLECULE
DPR
   16    16     1     0     0
SMALL
bcc


@<TRIPOS>ATOM
      1 N            0.7900     1.0400     0.4820 n7         1 DPR      -0.809200
      2 CA          -0.0060    -0.1850     0.5430 c5         1 DPR       0.022500
      3 CB           0.7120    -1.1890    -0.3720 c5         1 DPR      -0.085400
      4 CG           2.1700    -0.7890    -0.1950 c5         1 DPR      -0.101400
      5 CD           2.0910     0.7380    -0.1280 c5         1 DPR       0.158800
      6 C           -1.4750     0.0090     0.1310 c          1 DPR       0.923600
      7 O           -1.7850     1.0850    -0.4210 o          1 DPR      -0.839300
      8 OXT         -2.2300    -0.9550     0.3610 o          1 DPR      -0.839300
      9 H            0.2780     1.7010    -0.0860 hn         1 DPR       0.377800
     10 HA           0.0060    -0.5860     1.5650 h1         1 DPR       0.046700
     11 HB2          0.5040    -2.2270    -0.1110 hc         1 DPR       0.039700
     12 HB3          0.4070    -1.0380    -1.4130 hc         1 DPR       0.039700
     13 HG2          2.5570    -1.1950     0.7440 hc         1 DPR       0.021700
     14 HG3          2.8230    -1.1390    -0.9960 hc         1 DPR       0.021700
     15 HD2          2.1700     1.1600    -1.1350 h1         1 DPR       0.010200
     16 HD3          2.9170     1.1580     0.4540 h1         1 DPR       0.010200
@<TRIPOS>BOND
     1     1     2 1   
     2     1     5 1   
     3     1     9 1   
     4     2     3 1   
     5     2     6 1   
     6     2    10 1   
     7     3     4 1   
     8     3    11 1   
     9     3    12 1   
    10     4     5 1   
    11     4    13 1   
    12     4    14 1   
    13     5    15 1   
    14     5    16 1   
    15     6     7 1   
    16     6     8 1   
@<TRIPOS>SUBSTRUCTURE
     1 DPR         1 TEMP              0 ****  ****    0 ROOT
