@<TRIPOS>MOLECULE
DPS
   64    68     1     0     0
SMALL
bcc


@<TRIPOS>ATOM
      1 N1           0.1130     0.3180     2.6080 nh         1 DPS      -0.669000
      2 C2           1.9280     0.4110     1.0080 ca         1 DPS      -0.217000
      3 C3           2.3960     0.6360    -0.2670 ca         1 DPS       0.012000
      4 C4           1.5100     0.9760    -1.2870 ca         1 DPS      -0.332500
      5 C5           0.1540     1.0690    -1.0140 ca         1 DPS       0.012000
      6 N7          -1.1900     0.8960    -5.9400 na         1 DPS      -0.169400
      7 C8           1.6410    -1.4160    -3.2830 c3         1 DPS       0.051500
      8 C10         -1.5100     0.4120     9.4730 ca         1 DPS      -0.135000
      9 C11         -0.9270    -0.2910     5.2600 c6         1 DPS      -0.020400
     10 C12         -2.1800    -0.6210     8.8340 ca         1 DPS      -0.131000
     11 O1           3.3950     1.9320    -2.8470 o          1 DPS      -0.644800
     12 O2           1.0380     1.8530    -3.6800 o          1 DPS      -0.644800
     13 C1           0.5550     0.5070     1.3160 ca         1 DPS       0.206600
     14 C6          -0.3170     0.8330     0.2650 ca         1 DPS      -0.217000
     15 C7           0.5310    -0.5430     4.8800 c6         1 DPS      -0.076900
     16 C13         -1.4610     0.8630     4.4110 c6         1 DPS      -0.076900
     17 C15         -1.2760     0.6020     2.9240 c6         1 DPS       0.208300
     18 C18          0.6660    -0.7850     3.3870 c6         1 DPS       0.208300
     19 C14         -1.9830    -0.8460     7.4770 ca         1 DPS      -0.124000
     20 C16         -1.1180    -0.0470     6.7340 ca         1 DPS      -0.067300
     21 C17         -0.4510     0.9890     7.3880 ca         1 DPS      -0.124000
     22 C19         -0.6420     1.2170     8.7440 ca         1 DPS      -0.131000
     23 N            2.4690    -0.2440    -3.5460 n7         1 DPS      -0.781100
     24 C20          0.8210    -1.8410    -4.5060 c3         1 DPS       0.012800
     25 C9           2.5750    -2.5590    -2.7940 c          1 DPS       0.921600
     26 O3           2.0310    -3.6540    -2.5870 o          1 DPS      -0.816300
     27 O4           3.7810    -2.2690    -2.6490 o          1 DPS      -0.816300
     28 C21         -3.6760     0.7560    -3.2120 ca         1 DPS      -0.127000
     29 C22         -3.1170     1.2470    -4.3780 ca         1 DPS      -0.156000
     30 C23         -1.9530     0.6360    -4.8420 ca         1 DPS      -0.034200
     31 C24         -1.3560    -0.4510    -4.1650 ca         1 DPS      -0.091800
     32 C25         -1.9500    -0.9320    -2.9940 ca         1 DPS      -0.072000
     33 C26         -3.1010    -0.3260    -2.5260 ca         1 DPS      -0.186000
     34 C27         -0.1300     0.0320    -5.9680 cc         1 DPS      -0.093100
     35 C28         -0.1850    -0.8180    -4.9030 cd         1 DPS      -0.123400
     36 H2           2.6480     0.1910     1.7850 ha         1 DPS       0.125000
     37 H3           3.4600     0.5680    -0.4530 ha         1 DPS       0.156500
     38 H5          -0.5530     1.2980    -1.8000 ha         1 DPS       0.156500
     39 H8           0.9450    -1.2200    -2.4570 h1         1 DPS       0.039700
     40 H10         -1.6600     0.5900    10.5300 ha         1 DPS       0.124000
     41 H11         -1.4960    -1.1900     4.9920 hc         1 DPS       0.050700
     42 H12         -2.8580    -1.2550     9.3920 ha         1 DPS       0.125500
     43 H6          -1.3850     0.8840     0.4210 ha         1 DPS       0.125000
     44 H71          1.1500     0.3120     5.1660 hc         1 DPS       0.048200
     45 H72          0.9170    -1.4140     5.4130 hc         1 DPS       0.048200
     46 H131        -0.9460     1.7900     4.6810 hc         1 DPS       0.048200
     47 H132        -2.5240     1.0190     4.6050 hc         1 DPS       0.048200
     48 H151        -1.5910     1.4930     2.3810 h1         1 DPS       0.043700
     49 H152        -1.9320    -0.2230     2.6070 h1         1 DPS       0.043700
     50 H181         0.1500    -1.7190     3.1190 h1         1 DPS       0.043700
     51 H182         1.7150    -0.9270     3.1410 h1         1 DPS       0.043700
     52 H14         -2.5090    -1.6580     6.9870 ha         1 DPS       0.131000
     53 H17          0.2280     1.6300     6.8380 ha         1 DPS       0.131000
     54 H19         -0.1150     2.0260     9.2330 ha         1 DPS       0.125500
     55 HN           3.4310    -0.5080    -3.3080 hn         1 DPS       0.462800
     56 H201         1.5000    -2.0440    -5.3380 hc         1 DPS       0.057700
     57 H202         0.3290    -2.7840    -4.2590 hc         1 DPS       0.057700
     58 H22         -3.5670     2.0770    -4.9070 ha         1 DPS       0.116000
     59 H25         -1.5160    -1.7660    -2.4550 ha         1 DPS       0.143000
     60 H26         -3.5670    -0.6860    -1.6180 ha         1 DPS       0.114000
     61 H27          0.6070     0.0950    -6.7530 h4         1 DPS       0.157000
     62 HN7         -1.3620     1.6170    -6.6200 hn         1 DPS       0.286700
     63 S            2.1120     1.2350    -2.9220 sy         1 DPS       1.280200
     64 H21         -4.5780     1.2120    -2.8240 ha         1 DPS       0.109000
@<TRIPOS>BOND
     1     1    13 1   
     2     1    17 1   
     3     1    18 1   
     4     2     3 ar  
     5     2    13 ar  
     6     2    36 1   
     7     3     4 ar  
     8     3    37 1   
     9     4     5 ar  
    10     4    63 1   
    11     5    14 ar  
    12     5    38 1   
    13     6    30 1   
    14     6    34 1   
    15     6    62 1   
    16     7    23 1   
    17     7    24 1   
    18     7    25 1   
    19     7    39 1   
    20     8    10 ar  
    21     8    22 ar  
    22     8    40 1   
    23     9    15 1   
    24     9    16 1   
    25     9    20 1   
    26     9    41 1   
    27    10    19 ar  
    28    10    42 1   
    29    11    63 2   
    30    12    63 2   
    31    13    14 ar  
    32    14    43 1   
    33    15    18 1   
    34    15    44 1   
    35    15    45 1   
    36    16    17 1   
    37    16    46 1   
    38    16    47 1   
    39    17    48 1   
    40    17    49 1   
    41    18    50 1   
    42    18    51 1   
    43    19    20 ar  
    44    19    52 1   
    45    20    21 ar  
    46    21    22 ar  
    47    21    53 1   
    48    22    54 1   
    49    23    55 1   
    50    23    63 1   
    51    24    35 1   
    52    24    56 1   
    53    24    57 1   
    54    25    26 1   
    55    25    27 1   
    56    28    29 ar  
    57    28    33 ar  
    58    28    64 1   
    59    29    30 ar  
    60    29    58 1   
    61    30    31 ar  
    62    31    32 ar  
    63    31    35 1   
    64    32    33 ar  
    65    32    59 1   
    66    33    60 1   
    67    34    35 2   
    68    34    61 1   
@<TRIPOS>SUBSTRUCTURE
     1 DPS         1 TEMP              0 ****  ****    0 ROOT
