@<TRIPOS>MOLECULE
DPS
   64    68     1     0     0
SMALL
No Charge or Current Charge


@<TRIPOS>ATOM
      1 N1          -0.0320     0.5660     2.0070 nh         1 DPS      -0.807400
      2 C2           2.0600     0.3030     0.7780 ca         1 DPS      -0.199000
      3 C3           2.8420     0.4880    -0.3740 ca         1 DPS       0.030000
      4 C4           2.2940     1.1430    -1.4910 ca         1 DPS      -0.332500
      5 C5           0.9650     1.5990    -1.4540 ca         1 DPS       0.030000
      6 N7          -2.1900     0.6900    -3.6350 na         1 DPS      -0.219700
      7 C8           2.0810    -0.9150    -3.8610 c3         1 DPS       0.051500
      8 C10         -2.3560     0.2310     8.7590 ca         1 DPS      -0.117000
      9 C11         -1.6240     0.1140     4.4610 c6         1 DPS      -0.020400
     10 C12         -3.3300    -0.2860     7.8900 ca         1 DPS      -0.113000
     11 O1           4.5540     0.6910    -2.8800 o          1 DPS      -0.574000
     12 O2           3.1560     2.7800    -3.3890 o          1 DPS      -0.574000
     13 C1           0.7300     0.7580     0.8280 ca         1 DPS       0.345000
     14 C6           0.1900     1.4080    -0.2980 ca         1 DPS      -0.199000
     15 C7          -0.4060    -0.7720     4.0940 c6         1 DPS      -0.076900
     16 C13         -1.4270     1.5290     3.8580 c6         1 DPS      -0.076900
     17 C15         -1.1770     1.4640     2.3310 c6         1 DPS       0.208300
     18 C18         -0.1840    -0.8090     2.5630 c6         1 DPS       0.208300
     19 C14         -3.0910    -0.3220     6.5050 ca         1 DPS      -0.106000
     20 C16         -1.8750     0.1590     5.9770 ca         1 DPS      -0.067300
     21 C17         -0.9020     0.6770     6.8580 ca         1 DPS      -0.106000
     22 C19         -1.1420     0.7120     8.2430 ca         1 DPS      -0.113000
     23 N            2.3530     0.5440    -4.0980 n7         1 DPS      -0.836300
     24 C20          0.7690    -1.3240    -4.5740 c3         1 DPS       0.012800
     25 C9           3.2600    -1.8540    -4.3100 c          1 DPS       0.711000
     26 O3           3.5720    -2.7910    -3.5860 o          1 DPS      -0.711000
     27 O4           3.8550    -1.5740    -5.3440 o          1 DPS      -0.711000
     28 C21         -2.6230    -1.1810    -0.4240 ca         1 DPS      -0.109000
     29 C22         -2.9240    -0.2100    -1.4040 ca         1 DPS      -0.138000
     30 C23         -2.1120    -0.1580    -2.5440 ca         1 DPS      -0.034200
     31 C24         -1.0560    -1.0090    -2.7130 ca         1 DPS      -0.091800
     32 C25         -0.7260    -1.9830    -1.7600 ca         1 DPS      -0.054000
     33 C26         -1.5300    -2.0650    -0.6030 ca         1 DPS      -0.168000
     34 C27         -1.1580     0.3940    -4.5510 cc         1 DPS      -0.143100
     35 C28         -0.4520    -0.6590    -3.9790 cd         1 DPS      -0.123400
     36 H2           2.4970    -0.1870     1.6420 ha         1 DPS       0.107000
     37 H3           3.8690     0.1250    -0.3890 ha         1 DPS       0.138500
     38 H5           0.5250     2.0860    -2.3230 ha         1 DPS       0.138500
     39 H8           1.9230    -1.1000    -2.7910 h1         1 DPS       0.039700
     40 H10         -2.5410     0.2590     9.8310 ha         1 DPS       0.106000
     41 H11         -2.5080    -0.3270     3.9780 hc         1 DPS       0.050700
     42 H12         -4.2710    -0.6590     8.2880 ha         1 DPS       0.107500
     43 H6          -0.8380     1.7510    -0.2980 ha         1 DPS       0.107000
     44 H71          0.5030    -0.3960     4.5810 hc         1 DPS       0.048200
     45 H72         -0.5610    -1.7940     4.4660 hc         1 DPS       0.048200
     46 H131        -0.5770     2.0320     4.3380 hc         1 DPS       0.048200
     47 H132        -2.3100     2.1490     4.0590 hc         1 DPS       0.048200
     48 H151        -0.9780     2.4850     1.9710 h1         1 DPS       0.043700
     49 H152        -2.0890     1.1080     1.8270 h1         1 DPS       0.043700
     50 H181        -1.0430    -1.3080     2.0910 h1         1 DPS       0.043700
     51 H182         0.7030    -1.4230     2.3500 h1         1 DPS       0.043700
     52 H14         -3.8540    -0.7250     5.8430 ha         1 DPS       0.113000
     53 H17          0.0430     1.0530     6.4730 ha         1 DPS       0.113000
     54 H19         -0.3860     1.1130     8.9150 ha         1 DPS       0.107500
     55 HN           2.9560     0.6190    -4.9170 hn         1 DPS       0.518000
     56 H201         0.8480    -1.0950    -5.6430 hc         1 DPS       0.057700
     57 H202         0.6540    -2.4120    -4.5030 hc         1 DPS       0.057700
     58 H22         -3.7590     0.4740    -1.2770 ha         1 DPS       0.098000
     59 H25          0.1190    -2.6510    -1.9060 ha         1 DPS       0.125000
     60 H26         -1.3060    -2.8090     0.1560 ha         1 DPS       0.096000
     61 H27         -1.0090     0.9340    -5.4810 h4         1 DPS       0.207000
     62 HN7         -2.8890     1.4160    -3.7520 hn         1 DPS       0.337000
     63 S            3.2650     1.3780    -2.9820 sy         1 DPS       1.138600
     64 H21         -3.2320    -1.2490     0.4740 ha         1 DPS       0.091000
@<TRIPOS>BOND
     1     1    13 1   
     2     1    17 1   
     3     1    18 1   
     4     2     3 ar  
     5     2    13 ar  
     6     2    36 1   
     7     3     4 ar  
     8     3    37 1   
     9     4     5 ar  
    10     4    63 1   
    11     5    14 ar  
    12     5    38 1   
    13     6    30 1   
    14     6    34 1   
    15     6    62 1   
    16     7    23 1   
    17     7    24 1   
    18     7    25 1   
    19     7    39 1   
    20     8    10 ar  
    21     8    22 ar  
    22     8    40 1   
    23     9    15 1   
    24     9    16 1   
    25     9    20 1   
    26     9    41 1   
    27    10    19 ar  
    28    10    42 1   
    29    11    63 2   
    30    12    63 2   
    31    13    14 ar  
    32    14    43 1   
    33    15    18 1   
    34    15    44 1   
    35    15    45 1   
    36    16    17 1   
    37    16    46 1   
    38    16    47 1   
    39    17    48 1   
    40    17    49 1   
    41    18    50 1   
    42    18    51 1   
    43    19    20 ar  
    44    19    52 1   
    45    20    21 ar  
    46    21    22 ar  
    47    21    53 1   
    48    22    54 1   
    49    23    55 1   
    50    23    63 1   
    51    24    35 1   
    52    24    56 1   
    53    24    57 1   
    54    25    26 1   
    55    25    27 1   
    56    28    29 ar  
    57    28    33 ar  
    58    28    64 1   
    59    29    30 ar  
    60    29    58 1   
    61    30    31 ar  
    62    31    32 ar  
    63    31    35 1   
    64    32    33 ar  
    65    32    59 1   
    66    33    60 1   
    67    34    35 2   
    68    34    61 1   
@<TRIPOS>SUBSTRUCTURE
     1 DPS         1 TEMP              0 ****  ****    0 ROOT
