@<TRIPOS>MOLECULE
DPT
   28    30     1     0     0
SMALL
No Charge or Current Charge


@<TRIPOS>ATOM
      1 N1          -1.8480     0.0180     1.4070 nb         1 DPT      -0.624000
      2 C2          -1.8360     0.0170     2.7550 ca         1 DPT       0.344900
      3 C3          -0.6560     0.0050     3.5020 ca         1 DPT      -0.165000
      4 C4           0.5800    -0.0070     2.8390 ca         1 DPT      -0.029800
      5 C4A          0.5760    -0.0060     1.4200 ca         1 DPT      -0.078000
      6 C5           1.7880    -0.0180     0.7010 ca         1 DPT      -0.093000
      7 C6           1.7890    -0.0170    -0.6960 ca         1 DPT      -0.093000
      8 C6A          0.5800    -0.0050    -1.4170 ca         1 DPT      -0.078000
      9 C7           0.5880    -0.0050    -2.8360 ca         1 DPT      -0.029800
     10 C8          -0.6460     0.0080    -3.5030 ca         1 DPT      -0.165000
     11 C9          -1.8280     0.0190    -2.7590 ca         1 DPT       0.344900
     12 N10         -1.8440     0.0190    -1.4120 nb         1 DPT      -0.624000
     13 C10         -0.6650     0.0070    -0.7200 ca         1 DPT       0.296000
     14 C1A         -0.6670     0.0060     0.7180 ca         1 DPT       0.296000
     15 C11          1.8650    -0.0200     3.6640 c3         1 DPT      -0.053800
     16 C12          1.8750    -0.0170    -3.6580 c3         1 DPT      -0.053800
     17 H2          -2.8060     0.0260     3.2500 h4         1 DPT       0.021100
     18 H3          -0.7110     0.0050     4.5870 ha         1 DPT       0.122000
     19 H5           2.7470    -0.0280     1.2120 ha         1 DPT       0.116000
     20 H6           2.7500    -0.0270    -1.2040 ha         1 DPT       0.116000
     21 H8          -0.6980     0.0080    -4.5880 ha         1 DPT       0.122000
     22 H9          -2.7970     0.0290    -3.2570 h4         1 DPT       0.021100
     23 H111         2.4630    -0.9140     3.4500 hc         1 DPT       0.048033
     24 H112         2.4800     0.8620     3.4510 hc         1 DPT       0.048033
     25 H113         1.6570    -0.0180     4.7410 hc         1 DPT       0.048033
     26 H121         2.4730    -0.9110    -3.4440 hc         1 DPT       0.048033
     27 H122         1.6700    -0.0150    -4.7350 hc         1 DPT       0.048033
     28 H123         2.4900     0.8650    -3.4430 hc         1 DPT       0.048033
@<TRIPOS>BOND
     1     1     2 ar  
     2     1    14 ar  
     3     2     3 ar  
     4     2    17 1   
     5     3     4 ar  
     6     3    18 1   
     7     4     5 ar  
     8     4    15 1   
     9     5     6 ar  
    10     5    14 ar  
    11     6     7 ar  
    12     6    19 1   
    13     7     8 ar  
    14     7    20 1   
    15     8     9 ar  
    16     8    13 ar  
    17     9    10 ar  
    18     9    16 1   
    19    10    11 ar  
    20    10    21 1   
    21    11    12 ar  
    22    11    22 1   
    23    12    13 ar  
    24    13    14 ar  
    25    15    23 1   
    26    15    24 1   
    27    15    25 1   
    28    16    26 1   
    29    16    27 1   
    30    16    28 1   
@<TRIPOS>SUBSTRUCTURE
     1 DPT         1 TEMP              0 ****  ****    0 ROOT
