@<TRIPOS>MOLECULE
DPT
   28    30     1     0     0
SMALL
bcc


@<TRIPOS>ATOM
      1 N1          -1.8190     0.0180     1.3530 nb         1 DPT      -0.624000
      2 C2          -1.8200     0.0180     2.6630 ca         1 DPT       0.410200
      3 C3          -0.6580     0.0070     3.4450 ca         1 DPT      -0.248300
      4 C4           0.5720    -0.0060     2.8330 ca         1 DPT      -0.029800
      5 C4A          0.5960    -0.0040     1.4170 ca         1 DPT      -0.143300
      6 C5           1.8180    -0.0150     0.6800 ca         1 DPT      -0.111000
      7 C6           1.8200    -0.0140    -0.6740 ca         1 DPT      -0.111000
      8 C6A          0.6000    -0.0030    -1.4150 ca         1 DPT      -0.143300
      9 C7           0.5800    -0.0040    -2.8310 ca         1 DPT      -0.029800
     10 C8          -0.6490     0.0060    -3.4460 ca         1 DPT      -0.248300
     11 C9          -1.8120     0.0170    -2.6680 ca         1 DPT       0.410200
     12 N10         -1.8150     0.0180    -1.3570 nb         1 DPT      -0.624000
     13 C10         -0.6300     0.0080    -0.7250 ca         1 DPT       0.361300
     14 C1A         -0.6320     0.0070     0.7240 ca         1 DPT       0.361300
     15 C11          1.8350    -0.0230     3.6350 c3         1 DPT      -0.053800
     16 C12          1.8450    -0.0180    -3.6290 c3         1 DPT      -0.053800
     17 H2          -2.7900     0.0270     3.1500 h4         1 DPT       0.021100
     18 H3          -0.7410     0.0080     4.5240 ha         1 DPT       0.140000
     19 H5           2.7590    -0.0230     1.2140 ha         1 DPT       0.134000
     20 H6           2.7620    -0.0220    -1.2060 ha         1 DPT       0.134000
     21 H8          -0.7290     0.0050    -4.5260 ha         1 DPT       0.140000
     22 H9          -2.7810     0.0250    -3.1570 h4         1 DPT       0.021100
     23 H111         2.4360    -0.9070     3.4140 hc         1 DPT       0.048033
     24 H112         2.4580     0.8470     3.4200 hc         1 DPT       0.048033
     25 H113         1.6190    -0.0240     4.7010 hc         1 DPT       0.048033
     26 H121         2.4480    -0.9000    -3.4080 hc         1 DPT       0.048033
     27 H122         1.6320    -0.0170    -4.6960 hc         1 DPT       0.048033
     28 H123         2.4650     0.8540    -3.4110 hc         1 DPT       0.048033
@<TRIPOS>BOND
     1     1     2 ar  
     2     1    14 ar  
     3     2     3 ar  
     4     2    17 1   
     5     3     4 ar  
     6     3    18 1   
     7     4     5 ar  
     8     4    15 1   
     9     5     6 ar  
    10     5    14 ar  
    11     6     7 ar  
    12     6    19 1   
    13     7     8 ar  
    14     7    20 1   
    15     8     9 ar  
    16     8    13 ar  
    17     9    10 ar  
    18     9    16 1   
    19    10    11 ar  
    20    10    21 1   
    21    11    12 ar  
    22    11    22 1   
    23    12    13 ar  
    24    13    14 ar  
    25    15    23 1   
    26    15    24 1   
    27    15    25 1   
    28    16    26 1   
    29    16    27 1   
    30    16    28 1   
@<TRIPOS>SUBSTRUCTURE
     1 DPT         1 TEMP              0 ****  ****    0 ROOT
