@<TRIPOS>MOLECULE
DPV
   61    60     1     0     0
SMALL
abcg2


@<TRIPOS>ATOM
      1 N           -6.9660     1.6160     0.0860 n4         1 DPV      -0.486000
      2 P           -3.9040    -1.1570    -0.5260 p5         1 DPV       1.389800
      3 C1          -1.2720    -1.1310    -0.1870 c3         1 DPV       0.235600
      4 C2          -0.1170    -0.1510    -0.1680 c3         1 DPV      -0.086400
      5 C3           1.2280    -0.8640    -0.1090 c3         1 DPV      -0.077400
      6 C4          -6.0980    -0.6960     0.8400 c3         1 DPV       0.216600
      7 C5          -6.8630     0.5670     1.1640 c3         1 DPV       0.086600
      8 C6          -7.4610     1.0300    -1.1920 c3         1 DPV       0.073900
      9 C7          -7.9480     2.6320     0.5620 c3         1 DPV       0.073900
     10 C8          -5.6630     2.3000    -0.1630 c3         1 DPV       0.073900
     11 C15          2.4090     0.1000    -0.1100 c3         1 DPV      -0.073400
     12 C16          3.7570    -0.6060    -0.0490 c3         1 DPV      -0.075400
     13 C17          4.9390     0.3570    -0.0590 c3         1 DPV      -0.074400
     14 C18          6.2880    -0.3450     0.0130 c3         1 DPV      -0.074400
     15 C19          7.4700     0.6170     0.0030 c3         1 DPV      -0.074400
     16 O1P         -4.4880    -0.6200    -1.8010 o          1 DPV      -0.818000
     17 C20          8.8200    -0.0850     0.0760 c3         1 DPV      -0.074400
     18 C21         10.0000     0.8780     0.0680 c3         1 DPV      -0.075400
     19 C22         11.3520     0.1780     0.1400 c3         1 DPV      -0.075400
     20 C23         12.5220     1.1520     0.1340 c3         1 DPV      -0.088100
     21 O2P         -3.7820    -2.6340    -0.3170 o          1 DPV      -0.818000
     22 O3P         -2.4930    -0.4010    -0.2200 os         1 DPV      -0.612400
     23 O4P         -4.7120    -0.4690     0.7420 os         1 DPV      -0.582400
     24 H1          -1.1810    -1.7860    -1.0600 h1         1 DPV       0.028200
     25 H1A         -1.2340    -1.7720     0.7000 h1         1 DPV       0.028200
     26 H2          -0.1600     0.4780    -1.0630 hc         1 DPV       0.042700
     27 H2A         -0.2170     0.5170     0.6940 hc         1 DPV       0.042700
     28 H3           1.2730    -1.4910     0.7880 hc         1 DPV       0.037700
     29 H3A          1.3190    -1.5460    -0.9610 hc         1 DPV       0.037700
     30 H4          -6.3040    -1.3740     1.6740 h1         1 DPV       0.054200
     31 H4A         -6.5160    -1.1770    -0.0490 h1         1 DPV       0.054200
     32 H5          -6.4400     1.0620     2.0380 hx         1 DPV       0.078200
     33 H5A         -7.8860     0.2780     1.4030 hx         1 DPV       0.078200
     34 H6          -8.3760     0.4750    -1.0000 hx         1 DPV       0.095256
     35 H6A         -7.6650     1.8400    -1.8870 hx         1 DPV       0.095256
     36 H6B         -6.6990     0.3790    -1.6110 hx         1 DPV       0.095256
     37 H7          -7.6040     3.0500     1.5040 hx         1 DPV       0.095256
     38 H7A         -8.0290     3.4220    -0.1790 hx         1 DPV       0.095256
     39 H7B         -8.9160     2.1600     0.7020 hx         1 DPV       0.095256
     40 H8          -4.9840     1.6250    -0.6670 hx         1 DPV       0.095256
     41 H8A         -5.8500     3.1640    -0.7960 hx         1 DPV       0.095256
     42 H8B         -5.2430     2.6270     0.7840 hx         1 DPV       0.095256
     43 H15          2.3650     0.7240    -1.0100 hc         1 DPV       0.035200
     44 H15A         2.3170     0.7860     0.7390 hc         1 DPV       0.035200
     45 H16          3.8030    -1.2280     0.8520 hc         1 DPV       0.037200
     46 H16A         3.8450    -1.2950    -0.8970 hc         1 DPV       0.037200
     47 H17          4.8980     0.9720    -0.9660 hc         1 DPV       0.035200
     48 H17A         4.8450     1.0540     0.7820 hc         1 DPV       0.035200
     49 H18          6.3300    -0.9610     0.9190 hc         1 DPV       0.037200
     50 H18A         6.3810    -1.0410    -0.8280 hc         1 DPV       0.037200
     51 H19          7.4280     1.2330    -0.9030 hc         1 DPV       0.036200
     52 H19A         7.3760     1.3130     0.8450 hc         1 DPV       0.036200
     53 H20          8.8610    -0.7010     0.9810 hc         1 DPV       0.036700
     54 H20A         8.9130    -0.7800    -0.7660 hc         1 DPV       0.036700
     55 H21          9.9600     1.4950    -0.8380 hc         1 DPV       0.036700
     56 H21A         9.9070     1.5730     0.9100 hc         1 DPV       0.036700
     57 H22         11.3920    -0.4390     1.0430 hc         1 DPV       0.036700
     58 H22A        11.4450    -0.5140    -0.7030 hc         1 DPV       0.036700
     59 H23         12.4710     1.8330     0.9850 hc         1 DPV       0.030367
     60 H23A        13.4800     0.6320     0.1830 hc         1 DPV       0.030367
     61 H23B        12.5230     1.7590    -0.7740 hc         1 DPV       0.030367
@<TRIPOS>BOND
     1     1     7 1   
     2     1     8 1   
     3     1     9 1   
     4     1    10 1   
     5     2    16 1   
     6     2    21 1   
     7     2    22 1   
     8     2    23 1   
     9     3     4 1   
    10     3    22 1   
    11     3    24 1   
    12     3    25 1   
    13     4     5 1   
    14     4    26 1   
    15     4    27 1   
    16     5    11 1   
    17     5    28 1   
    18     5    29 1   
    19     6     7 1   
    20     6    23 1   
    21     6    30 1   
    22     6    31 1   
    23     7    32 1   
    24     7    33 1   
    25     8    34 1   
    26     8    35 1   
    27     8    36 1   
    28     9    37 1   
    29     9    38 1   
    30     9    39 1   
    31    10    40 1   
    32    10    41 1   
    33    10    42 1   
    34    11    12 1   
    35    11    43 1   
    36    11    44 1   
    37    12    13 1   
    38    12    45 1   
    39    12    46 1   
    40    13    14 1   
    41    13    47 1   
    42    13    48 1   
    43    14    15 1   
    44    14    49 1   
    45    14    50 1   
    46    15    17 1   
    47    15    51 1   
    48    15    52 1   
    49    17    18 1   
    50    17    53 1   
    51    17    54 1   
    52    18    19 1   
    53    18    55 1   
    54    18    56 1   
    55    19    20 1   
    56    19    57 1   
    57    19    58 1   
    58    20    59 1   
    59    20    60 1   
    60    20    61 1   
@<TRIPOS>SUBSTRUCTURE
     1 DPV         1 TEMP              0 ****  ****    0 ROOT
