@<TRIPOS>MOLECULE
DPV
   61    60     1     0     0
SMALL
No Charge or Current Charge


@<TRIPOS>ATOM
      1 N           -4.4030     1.7130     0.2870 n4         1 DPV      -0.486000
      2 P           -4.7900    -2.0960    -1.3860 p5         1 DPV       1.389800
      3 C1          -2.1830    -1.9240    -1.2110 c3         1 DPV       0.235600
      4 C2          -1.0990    -0.8280    -1.1780 c3         1 DPV      -0.086400
      5 C3           0.2870    -1.3630    -0.7580 c3         1 DPV      -0.077400
      6 C4          -5.4000    -0.7010     0.7990 c3         1 DPV       0.216600
      7 C5          -4.2190     0.3010     0.8750 c3         1 DPV       0.086600
      8 C6          -5.5690     2.4340     0.9810 c3         1 DPV       0.073900
      9 C7          -3.1160     2.5140     0.5180 c3         1 DPV       0.073900
     10 C8          -4.6690     1.6350    -1.2230 c3         1 DPV       0.073900
     11 C15          1.3700    -0.2620    -0.7160 c3         1 DPV      -0.073400
     12 C16          2.7570    -0.7940    -0.2930 c3         1 DPV      -0.075400
     13 C17          3.8390     0.3070    -0.2500 c3         1 DPV      -0.074400
     14 C18          5.2250    -0.2250     0.1740 c3         1 DPV      -0.074400
     15 C19          6.3070     0.8760     0.2170 c3         1 DPV      -0.074400
     16 O1P         -5.9130    -1.4360    -2.1120 o          1 DPV      -0.818000
     17 C20          7.6940     0.3440     0.6410 c3         1 DPV      -0.074400
     18 C21          8.7760     1.4450     0.6850 c3         1 DPV      -0.075400
     19 C22         10.1630     0.9140     1.1090 c3         1 DPV      -0.075400
     20 C23         11.2430     2.0120     1.1520 c3         1 DPV      -0.088100
     21 O2P         -4.6470    -3.5280    -1.7780 o          1 DPV      -0.818000
     22 O3P         -3.4080    -1.2980    -1.5920 os         1 DPV      -0.612400
     23 O4P         -4.9560    -1.9370     0.2120 os         1 DPV      -0.582400
     24 H1          -1.9010    -2.7000    -1.9340 h1         1 DPV       0.028200
     25 H1A         -2.2670    -2.3840    -0.2170 h1         1 DPV       0.028200
     26 H2          -1.0240    -0.3710    -2.1720 hc         1 DPV       0.042700
     27 H2A         -1.4040    -0.0390    -0.4820 hc         1 DPV       0.042700
     28 H3           0.2080    -1.8280     0.2330 hc         1 DPV       0.037700
     29 H3A          0.5980    -2.1490    -1.4580 hc         1 DPV       0.037700
     30 H4          -5.7800    -0.8760     1.8130 h1         1 DPV       0.054200
     31 H4A         -6.2200    -0.2640     0.2160 h1         1 DPV       0.054200
     32 H5          -3.3570    -0.1410     0.3780 hx         1 DPV       0.078200
     33 H5A         -3.9540     0.4220     1.9270 hx         1 DPV       0.078200
     34 H6          -5.3720     2.4870     2.0540 hx         1 DPV       0.095256
     35 H6A         -5.6600     3.4430     0.5750 hx         1 DPV       0.095256
     36 H6B         -6.4950     1.8840     0.8030 hx         1 DPV       0.095256
     37 H7          -2.2850     2.0140     0.0170 hx         1 DPV       0.095256
     38 H7A         -3.2380     3.5190     0.1100 hx         1 DPV       0.095256
     39 H7B         -2.9160     2.5750     1.5900 hx         1 DPV       0.095256
     40 H8          -5.5920     1.0810    -1.4020 hx         1 DPV       0.095256
     41 H8A         -4.7640     2.6450    -1.6260 hx         1 DPV       0.095256
     42 H8B         -3.8360     1.1220    -1.7080 hx         1 DPV       0.095256
     43 H15          1.4500     0.2030    -1.7070 hc         1 DPV       0.035200
     44 H15A         1.0570     0.5240    -0.0170 hc         1 DPV       0.035200
     45 H16          2.6770    -1.2600     0.6980 hc         1 DPV       0.037200
     46 H16A         3.0700    -1.5800    -0.9920 hc         1 DPV       0.037200
     47 H17          3.9190     0.7720    -1.2400 hc         1 DPV       0.035200
     48 H17A         3.5250     1.0920     0.4490 hc         1 DPV       0.035200
     49 H18          5.1450    -0.6900     1.1640 hc         1 DPV       0.037200
     50 H18A         5.5390    -1.0110    -0.5250 hc         1 DPV       0.037200
     51 H19          6.3880     1.3410    -0.7730 hc         1 DPV       0.036200
     52 H19A         5.9940     1.6620     0.9160 hc         1 DPV       0.036200
     53 H20          7.6140    -0.1210     1.6320 hc         1 DPV       0.036700
     54 H20A         8.0080    -0.4410    -0.0580 hc         1 DPV       0.036700
     55 H21          8.8570     1.9110    -0.3060 hc         1 DPV       0.036700
     56 H21A         8.4630     2.2310     1.3830 hc         1 DPV       0.036700
     57 H22         10.0870     0.4500     2.1000 hc         1 DPV       0.036700
     58 H22A        10.4810     0.1290     0.4110 hc         1 DPV       0.036700
     59 H23         10.9710     2.7960     1.8690 hc         1 DPV       0.030367
     60 H23A        12.2070     1.5880     1.4570 hc         1 DPV       0.030367
     61 H23B        11.3680     2.4730     0.1640 hc         1 DPV       0.030367
@<TRIPOS>BOND
     1     1     7 1   
     2     1     8 1   
     3     1     9 1   
     4     1    10 1   
     5     2    16 1   
     6     2    21 1   
     7     2    22 1   
     8     2    23 1   
     9     3     4 1   
    10     3    22 1   
    11     3    24 1   
    12     3    25 1   
    13     4     5 1   
    14     4    26 1   
    15     4    27 1   
    16     5    11 1   
    17     5    28 1   
    18     5    29 1   
    19     6     7 1   
    20     6    23 1   
    21     6    30 1   
    22     6    31 1   
    23     7    32 1   
    24     7    33 1   
    25     8    34 1   
    26     8    35 1   
    27     8    36 1   
    28     9    37 1   
    29     9    38 1   
    30     9    39 1   
    31    10    40 1   
    32    10    41 1   
    33    10    42 1   
    34    11    12 1   
    35    11    43 1   
    36    11    44 1   
    37    12    13 1   
    38    12    45 1   
    39    12    46 1   
    40    13    14 1   
    41    13    47 1   
    42    13    48 1   
    43    14    15 1   
    44    14    49 1   
    45    14    50 1   
    46    15    17 1   
    47    15    51 1   
    48    15    52 1   
    49    17    18 1   
    50    17    53 1   
    51    17    54 1   
    52    18    19 1   
    53    18    55 1   
    54    18    56 1   
    55    19    20 1   
    56    19    57 1   
    57    19    58 1   
    58    20    59 1   
    59    20    60 1   
    60    20    61 1   
@<TRIPOS>SUBSTRUCTURE
     1 DPV         1 TEMP              0 ****  ****    0 ROOT
