@<TRIPOS>MOLECULE
DPW
   55    54     1     0     0
SMALL
bcc


@<TRIPOS>ATOM
      1 C1          -6.6400     0.5990    -0.5670 c3         1 DPW       0.102433
      2 C2          -4.8460     2.2370    -0.5470 c3         1 DPW       0.102433
      3 C3          -6.6590     2.4120     1.0440 c3         1 DPW       0.102433
      4 C4          -5.0630     0.6320     1.3450 c3         1 DPW       0.112800
      5 C5          -4.3170    -0.5970     0.8790 c3         1 DPW       0.196400
      6 C10          4.6330    -0.3670     0.0180 c3         1 DPW      -0.075400
      7 C11          5.8050     0.6070     0.0230 c3         1 DPW      -0.074400
      8 C6          -0.2870    -1.0950    -0.9000 c3         1 DPW       0.204400
      9 C7           0.8680    -0.1160    -0.9640 c3         1 DPW      -0.087400
     10 C9           3.3140     0.2710    -0.3960 c3         1 DPW      -0.073400
     11 O3          -2.8830    -2.5750    -0.9810 o          1 DPW      -0.811500
     12 P           -2.9020    -1.1080    -1.2770 p5         1 DPW       1.380800
     13 O4          -3.8000    -0.5470    -2.3390 o          1 DPW      -0.811500
     14 O1          -3.1700    -0.2780     0.1310 os         1 DPW      -0.572200
     15 N           -5.7880     1.4520     0.3060 n4         1 DPW      -0.598800
     16 O2          -1.4100    -0.5350    -1.5700 os         1 DPW      -0.567200
     17 C8           2.1470    -0.7090    -0.3860 c3         1 DPW      -0.076400
     18 C12          7.1420    -0.0690     0.3010 c3         1 DPW      -0.075400
     19 C13          8.3200     0.8980     0.3070 c3         1 DPW      -0.075400
     20 C14          9.6620     0.2110     0.5280 c3         1 DPW      -0.075400
     21 C15         10.8310     1.1870     0.5320 c3         1 DPW      -0.088100
     22 H1          -6.0090    -0.0230    -1.1950 hx         1 DPW       0.095367
     23 H1A         -7.2900    -0.0140     0.0510 hx         1 DPW       0.095367
     24 H1B         -7.2420     1.2480    -1.1980 hx         1 DPW       0.095367
     25 H2          -5.4300     2.9080    -1.1710 hx         1 DPW       0.095367
     26 H2A         -4.1860     2.8140     0.0950 hx         1 DPW       0.095367
     27 H2B         -4.2730     1.5670    -1.1770 hx         1 DPW       0.095367
     28 H3          -7.3740     1.8590     1.6470 hx         1 DPW       0.095367
     29 H3A         -6.0400     3.0340     1.6850 hx         1 DPW       0.095367
     30 H3B         -7.1880     3.0360     0.3290 hx         1 DPW       0.095367
     31 H4          -5.8240     0.3000     2.0520 hx         1 DPW       0.077700
     32 H4A         -4.3970     1.3170     1.8690 hx         1 DPW       0.077700
     33 H5          -4.0280    -1.1150     1.8000 h1         1 DPW       0.053700
     34 H5A         -4.9940    -1.2790     0.3560 h1         1 DPW       0.053700
     35 H10          4.8570    -1.1940    -0.6660 hc         1 DPW       0.036700
     36 H10A         4.5310    -0.8170     1.0120 hc         1 DPW       0.036700
     37 H11          5.8550     1.1170    -0.9460 hc         1 DPW       0.035700
     38 H11A         5.6280     1.3890     0.7690 hc         1 DPW       0.035700
     39 H6          -0.0030    -2.0400    -1.3760 h1         1 DPW       0.025200
     40 H6A         -0.5190    -1.3190     0.1460 h1         1 DPW       0.025200
     41 H7           1.0430     0.1700    -2.0060 hc         1 DPW       0.044200
     42 H7A          0.6010     0.7980    -0.4250 hc         1 DPW       0.044200
     43 H9           3.0860     1.1150     0.2640 hc         1 DPW       0.035200
     44 H9A          3.4210     0.6940    -1.4010 hc         1 DPW       0.035200
     45 H8           1.9690    -1.0490     0.6400 hc         1 DPW       0.036700
     46 H8A          2.4210    -1.6020    -0.9580 hc         1 DPW       0.036700
     47 H12          7.0970    -0.5910     1.2630 hc         1 DPW       0.037200
     48 H12A         7.3150    -0.8430    -0.4560 hc         1 DPW       0.037200
     49 H13          8.3460     1.4430    -0.6440 hc         1 DPW       0.036200
     50 H13A         8.1660     1.6540     1.0850 hc         1 DPW       0.036200
     51 H14          9.6380    -0.3370     1.4760 hc         1 DPW       0.036200
     52 H14A         9.8140    -0.5410    -0.2520 hc         1 DPW       0.036200
     53 H15         10.8900     1.7320    -0.4120 hc         1 DPW       0.030700
     54 H15A        10.7260     1.9230     1.3310 hc         1 DPW       0.030700
     55 H15B        11.7830     0.6750     0.6770 hc         1 DPW       0.030700
@<TRIPOS>BOND
     1     1    15 1   
     2     1    22 1   
     3     1    23 1   
     4     1    24 1   
     5     2    15 1   
     6     2    25 1   
     7     2    26 1   
     8     2    27 1   
     9     3    15 1   
    10     3    28 1   
    11     3    29 1   
    12     3    30 1   
    13     4     5 1   
    14     4    15 1   
    15     4    31 1   
    16     4    32 1   
    17     5    14 1   
    18     5    33 1   
    19     5    34 1   
    20     6     7 1   
    21     6    10 1   
    22     6    35 1   
    23     6    36 1   
    24     7    18 1   
    25     7    37 1   
    26     7    38 1   
    27     8     9 1   
    28     8    16 1   
    29     8    39 1   
    30     8    40 1   
    31     9    17 1   
    32     9    41 1   
    33     9    42 1   
    34    10    17 1   
    35    10    43 1   
    36    10    44 1   
    37    11    12 1   
    38    12    13 1   
    39    12    14 1   
    40    12    16 1   
    41    17    45 1   
    42    17    46 1   
    43    18    19 1   
    44    18    47 1   
    45    18    48 1   
    46    19    20 1   
    47    19    49 1   
    48    19    50 1   
    49    20    21 1   
    50    20    51 1   
    51    20    52 1   
    52    21    53 1   
    53    21    54 1   
    54    21    55 1   
@<TRIPOS>SUBSTRUCTURE
     1 DPW         1 TEMP              0 ****  ****    0 ROOT
