@<TRIPOS>MOLECULE
DPW
   55    54     1     0     0
SMALL
No Charge or Current Charge


@<TRIPOS>ATOM
      1 C1          -4.8760     2.2260     0.6860 c3         1 DPW       0.074233
      2 C2          -3.7820     1.4380    -1.4330 c3         1 DPW       0.074233
      3 C3          -2.4090     2.4690     0.3760 c3         1 DPW       0.074233
      4 C4          -3.3780     0.1920     0.7280 c3         1 DPW       0.084600
      5 C5          -4.4790    -0.8930     0.6070 c3         1 DPW       0.219600
      6 C10          3.7190    -0.4260     0.0310 c3         1 DPW      -0.075400
      7 C11          4.7170     0.7510     0.1060 c3         1 DPW      -0.074400
      8 C6          -1.0590    -1.9310    -1.1580 c3         1 DPW       0.227600
      9 C7          -0.0590    -0.7610    -1.0920 c3         1 DPW      -0.087400
     10 C9           2.3290    -0.0060    -0.4940 c3         1 DPW      -0.073400
     11 O3          -3.3690    -3.7220    -1.8340 o          1 DPW      -0.811500
     12 P           -3.6320    -2.2930    -1.4940 p5         1 DPW       1.380800
     13 O4          -4.7490    -1.7320    -2.3060 o          1 DPW      -0.811500
     14 O1          -3.9130    -2.1080     0.0850 os         1 DPW      -0.595400
     15 N           -3.6210     1.5730     0.0880 n4         1 DPW      -0.486000
     16 O2          -2.2980    -1.4060    -1.6340 os         1 DPW      -0.590400
     17 C8           1.3310    -1.1830    -0.5690 c3         1 DPW      -0.076400
     18 C12          6.1070     0.3320     0.6320 c3         1 DPW      -0.075400
     19 C13          7.1050     1.5080     0.7070 c3         1 DPW      -0.075400
     20 C14          8.4950     1.0890     1.2330 c3         1 DPW      -0.075400
     21 C15          9.4910     2.2630     1.3080 c3         1 DPW      -0.088100
     22 H1          -5.7490     1.6080     0.4660 hx         1 DPW       0.095367
     23 H1A         -4.7540     2.3200     1.7670 hx         1 DPW       0.095367
     24 H1B         -5.0100     3.2160     0.2450 hx         1 DPW       0.095367
     25 H2          -3.9210     2.4280    -1.8710 hx         1 DPW       0.095367
     26 H2A         -2.8850     0.9740    -1.8490 hx         1 DPW       0.095367
     27 H2B         -4.6510     0.8150    -1.6530 hx         1 DPW       0.095367
     28 H3          -2.2840     2.5700     1.4560 hx         1 DPW       0.095367
     29 H3A         -1.5150     2.0160    -0.0570 hx         1 DPW       0.095367
     30 H3B         -2.5740     3.4520    -0.0690 hx         1 DPW       0.095367
     31 H4          -3.1920     0.3580     1.7910 hx         1 DPW       0.077700
     32 H4A         -2.4570    -0.2000     0.3010 hx         1 DPW       0.077700
     33 H5          -4.9110    -1.0690     1.6000 h1         1 DPW       0.053700
     34 H5A         -5.2890    -0.5290    -0.0370 h1         1 DPW       0.053700
     35 H10          4.1310    -1.2050    -0.6230 hc         1 DPW       0.036700
     36 H10A         3.6090    -0.8690     1.0280 hc         1 DPW       0.036700
     37 H11          4.8270     1.1940    -0.8910 hc         1 DPW       0.035700
     38 H11A         4.3050     1.5300     0.7600 hc         1 DPW       0.035700
     39 H6          -0.6780    -2.7040    -1.8380 h1         1 DPW       0.025200
     40 H6A         -1.1750    -2.3700    -0.1580 h1         1 DPW       0.025200
     41 H7           0.0470    -0.3250    -2.0930 hc         1 DPW       0.044200
     42 H7A         -0.4640     0.0230    -0.4410 hc         1 DPW       0.044200
     43 H9           1.9180     0.7740     0.1590 hc         1 DPW       0.035200
     44 H9A          2.4390     0.4370    -1.4920 hc         1 DPW       0.035200
     45 H8           1.2210    -1.6260     0.4280 hc         1 DPW       0.036700
     46 H8A          1.7410    -1.9630    -1.2240 hc         1 DPW       0.036700
     47 H12          5.9970    -0.1120     1.6290 hc         1 DPW       0.037200
     48 H12A         6.5190    -0.4480    -0.0220 hc         1 DPW       0.037200
     49 H13          7.2150     1.9520    -0.2900 hc         1 DPW       0.036200
     50 H13A         6.6930     2.2880     1.3610 hc         1 DPW       0.036200
     51 H14          8.3890     0.6470     2.2310 hc         1 DPW       0.036200
     52 H14A         8.9110     0.3110     0.5800 hc         1 DPW       0.036200
     53 H15          9.6460     2.7050     0.3170 hc         1 DPW       0.030700
     54 H15A         9.1190     3.0440     1.9820 hc         1 DPW       0.030700
     55 H15B        10.4610     1.9180     1.6860 hc         1 DPW       0.030700
@<TRIPOS>BOND
     1     1    15 1   
     2     1    22 1   
     3     1    23 1   
     4     1    24 1   
     5     2    15 1   
     6     2    25 1   
     7     2    26 1   
     8     2    27 1   
     9     3    15 1   
    10     3    28 1   
    11     3    29 1   
    12     3    30 1   
    13     4     5 1   
    14     4    15 1   
    15     4    31 1   
    16     4    32 1   
    17     5    14 1   
    18     5    33 1   
    19     5    34 1   
    20     6     7 1   
    21     6    10 1   
    22     6    35 1   
    23     6    36 1   
    24     7    18 1   
    25     7    37 1   
    26     7    38 1   
    27     8     9 1   
    28     8    16 1   
    29     8    39 1   
    30     8    40 1   
    31     9    17 1   
    32     9    41 1   
    33     9    42 1   
    34    10    17 1   
    35    10    43 1   
    36    10    44 1   
    37    11    12 1   
    38    12    13 1   
    39    12    14 1   
    40    12    16 1   
    41    17    45 1   
    42    17    46 1   
    43    18    19 1   
    44    18    47 1   
    45    18    48 1   
    46    19    20 1   
    47    19    49 1   
    48    19    50 1   
    49    20    21 1   
    50    20    51 1   
    51    20    52 1   
    52    21    53 1   
    53    21    54 1   
    54    21    55 1   
@<TRIPOS>SUBSTRUCTURE
     1 DPW         1 TEMP              0 ****  ****    0 ROOT
