@<TRIPOS>MOLECULE
DPZ
   22    23     1     0     0
SMALL
No Charge or Current Charge


@<TRIPOS>ATOM
      1 N1          15.8100    17.0360    24.2980 ns         1 DPZ      -0.358500
      2 C2          15.3690    16.8770    22.9990 c          1 DPZ       0.598600
      3 O3          14.1940    16.6060    22.7940 o          1 DPZ      -0.604000
      4 C4          16.3980    17.0930    21.9070 ca         1 DPZ      -0.275600
      5 C5          16.0860    16.9310    20.5410 ca         1 DPZ       0.428000
      6 C6          17.0400    17.1680    19.5520 ca         1 DPZ      -0.288000
      7 C7          18.3240    17.5620    19.9040 ca         1 DPZ       0.380000
      8 C8          18.6680    17.7190    21.2460 ca         1 DPZ      -0.196000
      9 C9          17.7180    17.4900    22.2650 ca         1 DPZ      -0.020600
     10 C10         18.1250    17.6580    23.7180 c          1 DPZ       0.569600
     11 O11         19.2530    17.9740    24.0710 o          1 DPZ      -0.558000
     12 N12         17.1390    17.4110    24.6480 ns         1 DPZ      -0.357500
     13 N13         19.2480    17.7870    18.9270 nv         1 DPZ      -1.093000
     14 N14         14.8540    16.5350    20.1280 nv         1 DPZ      -1.105000
     15 H1          15.1130    17.0060    25.0380 hn         1 DPZ       0.342500
     16 H6          16.7830    17.0370    18.5060 ha         1 DPZ       0.115000
     17 H8          19.6790    18.0210    21.5040 ha         1 DPZ       0.141000
     18 H12         17.3940    17.4180    25.6330 hn         1 DPZ       0.343500
     19 H131        20.1240    18.2490    19.1650 hn         1 DPZ       0.470000
     20 H132        18.9440    17.8420    17.9570 hn         1 DPZ       0.470000
     21 H141        14.5650    16.7300    19.1730 hn         1 DPZ       0.499000
     22 H142        14.1230    16.5030    20.8420 hn         1 DPZ       0.499000
@<TRIPOS>BOND
     1     1     2 1   
     2     1    12 1   
     3     1    15 1   
     4     2     3 2   
     5     2     4 1   
     6     4     5 ar  
     7     4     9 ar  
     8     5     6 ar  
     9     5    14 1   
    10     6     7 ar  
    11     6    16 1   
    12     7     8 ar  
    13     7    13 1   
    14     8     9 ar  
    15     8    17 1   
    16     9    10 1   
    17    10    11 2   
    18    10    12 1   
    19    12    18 1   
    20    13    19 1   
    21    13    20 1   
    22    14    21 1   
    23    14    22 1   
@<TRIPOS>SUBSTRUCTURE
     1 DPZ         1 TEMP              0 ****  ****    0 ROOT
