@<TRIPOS>MOLECULE
DPZ
   22    23     1     0     0
SMALL
abcg2


@<TRIPOS>ATOM
      1 N1          15.8310    17.1200    24.2410 ns         1 DPZ      -0.358500
      2 C2          15.3980    16.9030    22.9700 c          1 DPZ       0.598600
      3 O3          14.2080    16.5760    22.7990 o          1 DPZ      -0.604000
      4 C4          16.3870    17.0970    21.9220 ca         1 DPZ      -0.275600
      5 C5          16.0510    16.9460    20.5430 ca         1 DPZ       0.428000
      6 C6          17.0320    17.1900    19.5770 ca         1 DPZ      -0.288000
      7 C7          18.3330    17.5590    19.9210 ca         1 DPZ       0.380000
      8 C8          18.6710    17.6890    21.2800 ca         1 DPZ      -0.196000
      9 C9          17.7150    17.4650    22.2470 ca         1 DPZ      -0.020600
     10 C10         18.1180    17.6300    23.6640 c          1 DPZ       0.569600
     11 O11         19.2530    17.9490    24.0310 o          1 DPZ      -0.558000
     12 N12         17.1440    17.3990    24.5680 ns         1 DPZ      -0.357500
     13 N13         19.2860    17.7440    18.9530 nv         1 DPZ      -1.093000
     14 N14         14.8090    16.5410    20.1570 nv         1 DPZ      -1.105000
     15 H1          15.2370    16.8700    25.0170 hn         1 DPZ       0.342500
     16 H6          16.7690    17.0840    18.5310 ha         1 DPZ       0.115000
     17 H8          19.6740    17.9690    21.5730 ha         1 DPZ       0.141000
     18 H12         17.3180    17.5680    25.5490 hn         1 DPZ       0.343500
     19 H131        20.1130    18.2610    19.2070 hn         1 DPZ       0.470000
     20 H132        18.9720    17.8930    18.0070 hn         1 DPZ       0.470000
     21 H141        14.5440    16.6620    19.1940 hn         1 DPZ       0.499000
     22 H142        14.0880    16.5360    20.8640 hn         1 DPZ       0.499000
@<TRIPOS>BOND
     1     1     2 1   
     2     1    12 1   
     3     1    15 1   
     4     2     3 2   
     5     2     4 1   
     6     4     5 ar  
     7     4     9 ar  
     8     5     6 ar  
     9     5    14 1   
    10     6     7 ar  
    11     6    16 1   
    12     7     8 ar  
    13     7    13 1   
    14     8     9 ar  
    15     8    17 1   
    16     9    10 1   
    17    10    11 2   
    18    10    12 1   
    19    12    18 1   
    20    13    19 1   
    21    13    20 1   
    22    14    21 1   
    23    14    22 1   
@<TRIPOS>SUBSTRUCTURE
     1 DPZ         1 TEMP              0 ****  ****    0 ROOT
