@<TRIPOS>MOLECULE
DQ0
   50    52     1     0     0
SMALL
No Charge or Current Charge


@<TRIPOS>ATOM
      1 C4           2.8870    -1.6050     0.4520 ca         1 DQ0       0.201300
      2 C5           3.6500    -0.7820    -0.4230 cp         1 DQ0      -0.261000
      3 C6           4.6500    -1.4480    -1.1660 ca         1 DQ0       0.429900
      4 N1           4.8780    -2.7600    -1.0770 nb         1 DQ0      -0.335000
      5 N3           3.1200    -2.9320     0.5470 nb         1 DQ0      -0.267000
      6 OBC         -9.3550    -1.1380    -1.4380 o          1 DQ0      -0.737000
      7 CBB         -8.8210    -0.0400    -1.3940 c          1 DQ0       0.720000
      8 OBD         -8.9430     0.8080    -2.2650 o          1 DQ0      -0.737000
      9 CBA         -7.8890     0.2660    -0.2090 c3         1 DQ0      -0.208400
     10 CAZ         -6.4420    -0.1810    -0.5400 c3         1 DQ0      -0.059400
     11 CAY         -5.4460     0.0940     0.6040 c3         1 DQ0       0.153600
     12 CAV         -3.0350    -0.2570     0.9800 ca         1 DQ0       0.200100
     13 CAW         -1.8180    -0.7300     0.4710 ca         1 DQ0      -0.199000
     14 CAU         -3.0800     0.3020     2.2740 ca         1 DQ0      -0.236000
     15 CAT         -1.9090     0.3820     3.0460 ca         1 DQ0      -0.041000
     16 CAS         -0.6930    -0.0930     2.5300 ca         1 DQ0      -0.251000
     17 CAR         -0.6450    -0.6530     1.2360 ca         1 DQ0       0.168100
     18 OAK          0.5200    -1.1320     0.6760 os         1 DQ0      -0.342100
     19 CAJ          1.7860    -1.0640     1.3620 c3         1 DQ0       0.108300
     20 C2           4.0980    -3.4230    -0.2220 ca         1 DQ0       0.414900
     21 NAH          4.3260    -4.7520    -0.1270 nv         1 DQ0      -1.057900
     22 NAG          5.4430    -0.8040    -2.0560 nv         1 DQ0      -1.072900
     23 CAI          3.4090     0.6880    -0.5390 cp         1 DQ0      -0.014000
     24 CAP          4.4160     1.6170    -0.1830 ca         1 DQ0      -0.106000
     25 CAO          4.1880     2.9990    -0.2820 ca         1 DQ0       0.111000
     26 Cl           5.4550     4.1310     0.1710 cl         1 DQ0      -0.216000
     27 CAN          2.9500     3.4790    -0.7390 ca         1 DQ0      -0.104000
     28 CAM          1.9380     2.5730    -1.0990 ca         1 DQ0      -0.101000
     29 CAL          2.1680     1.1890    -1.0010 ca         1 DQ0      -0.087000
     30 H2          -7.8350     1.3480    -0.0310 hc         1 DQ0       0.016700
     31 H3          -8.1870    -0.3120     0.6740 hc         1 DQ0       0.016700
     32 H4          -6.4380    -1.2540    -0.7650 hc         1 DQ0       0.056200
     33 H5          -6.1000     0.3390    -1.4430 hc         1 DQ0       0.056200
     34 H6          -5.4250     1.1710     0.8210 h1         1 DQ0       0.024200
     35 H7          -5.7670    -0.4420     1.5070 h1         1 DQ0       0.024200
     36 H8          -1.7830    -1.1600    -0.5250 ha         1 DQ0       0.138000
     37 H9          -4.0070     0.6770     2.6960 ha         1 DQ0       0.125000
     38 H10         -1.9440     0.8140     4.0450 ha         1 DQ0       0.101000
     39 H11          0.1980    -0.0200     3.1470 ha         1 DQ0       0.109000
     40 H12          1.7530    -1.6550     2.2870 h1         1 DQ0       0.054700
     41 H13          2.0210    -0.0280     1.6370 h1         1 DQ0       0.054700
     42 H14          3.6220    -5.3300     0.3250 hn         1 DQ0       0.490500
     43 H15          4.8940    -5.1970    -0.8430 hn         1 DQ0       0.490500
     44 H16          5.1630     0.1250    -2.3550 hn         1 DQ0       0.493000
     45 H17          5.9660    -1.3630    -2.7250 hn         1 DQ0       0.493000
     46 H18          5.3760     1.2580     0.1780 ha         1 DQ0       0.131000
     47 H19          2.7760     4.5500    -0.8130 ha         1 DQ0       0.128000
     48 H20          0.9780     2.9410    -1.4550 ha         1 DQ0       0.127000
     49 H21          1.3810     0.4960    -1.2880 ha         1 DQ0       0.139000
     50 OAX         -4.1520    -0.3620     0.1770 os         1 DQ0      -0.342100
@<TRIPOS>BOND
     1     1     2 ar  
     2     1     5 ar  
     3     1    19 1   
     4     2     3 ar  
     5     2    23 1   
     6     3     4 ar  
     7     3    22 1   
     8     4    20 ar  
     9     5    20 ar  
    10     6     7 1   
    11     7     8 1   
    12     7     9 1   
    13     9    10 1   
    14     9    30 1   
    15     9    31 1   
    16    10    11 1   
    17    10    32 1   
    18    10    33 1   
    19    11    34 1   
    20    11    35 1   
    21    11    50 1   
    22    12    13 ar  
    23    12    14 ar  
    24    12    50 1   
    25    13    17 ar  
    26    13    36 1   
    27    14    15 ar  
    28    14    37 1   
    29    15    16 ar  
    30    15    38 1   
    31    16    17 ar  
    32    16    39 1   
    33    17    18 1   
    34    18    19 1   
    35    19    40 1   
    36    19    41 1   
    37    20    21 1   
    38    21    42 1   
    39    21    43 1   
    40    22    44 1   
    41    22    45 1   
    42    23    24 ar  
    43    23    29 ar  
    44    24    25 ar  
    45    24    46 1   
    46    25    26 1   
    47    25    27 ar  
    48    27    28 ar  
    49    27    47 1   
    50    28    29 ar  
    51    28    48 1   
    52    29    49 1   
@<TRIPOS>SUBSTRUCTURE
     1 DQ0         1 TEMP              0 ****  ****    0 ROOT
