@<TRIPOS>MOLECULE
DQ0
   50    52     1     0     0
SMALL
abcg2


@<TRIPOS>ATOM
      1 C4           2.8500    -1.5750     0.4720 ca         1 DQ0       0.201300
      2 C5           3.5400    -0.7500    -0.3940 cp         1 DQ0      -0.261000
      3 C6           4.5220    -1.3940    -1.1900 ca         1 DQ0       0.429900
      4 N1           4.7460    -2.7000    -1.0970 nb         1 DQ0      -0.335000
      5 N3           3.0690    -2.8850     0.5730 nb         1 DQ0      -0.267000
      6 OBC         -9.9070     0.3790    -0.9150 o          1 DQ0      -0.737000
      7 CBB         -8.7480     0.0780    -1.2700 c          1 DQ0       0.720000
      8 OBD         -8.3990    -0.3190    -2.3990 o          1 DQ0      -0.737000
      9 CBA         -7.6580     0.2260    -0.1920 c3         1 DQ0      -0.208400
     10 CAZ         -6.2630    -0.2170    -0.6050 c3         1 DQ0      -0.059400
     11 CAY         -5.2750    -0.0020     0.5210 c3         1 DQ0       0.153600
     12 CAV         -2.9450    -0.3140     0.9220 ca         1 DQ0       0.200100
     13 CAW         -1.7220    -0.7660     0.4340 ca         1 DQ0      -0.199000
     14 CAU         -3.0240     0.2290     2.2070 ca         1 DQ0      -0.236000
     15 CAT         -1.8690     0.3050     2.9710 ca         1 DQ0      -0.041000
     16 CAS         -0.6420    -0.1400     2.5010 ca         1 DQ0      -0.251000
     17 CAR         -0.5770    -0.6830     1.2180 ca         1 DQ0       0.168100
     18 OAK          0.5530    -1.1570     0.6540 os         1 DQ0      -0.342100
     19 CAJ          1.7710    -1.0330     1.3680 c3         1 DQ0       0.108300
     20 C2           4.0130    -3.3870    -0.2220 ca         1 DQ0       0.414900
     21 NAH          4.2730    -4.7070    -0.1100 nv         1 DQ0      -1.057900
     22 NAG          5.2760    -0.7040    -2.0620 nv         1 DQ0      -1.072900
     23 CAI          3.2850     0.7010    -0.5150 cp         1 DQ0      -0.014000
     24 CAP          4.2310     1.6130    -0.0480 ca         1 DQ0      -0.106000
     25 CAO          3.9900     2.9720    -0.1650 ca         1 DQ0       0.111000
     26 CL           5.1750     4.0940     0.4240 cl         1 DQ0      -0.216000
     27 CAN          2.8240     3.4550    -0.7380 ca         1 DQ0      -0.104000
     28 CAM          1.8870     2.5440    -1.2040 ca         1 DQ0      -0.101000
     29 CAL          2.1140     1.1800    -1.1000 ca         1 DQ0      -0.087000
     30 H2          -7.6350     1.2770     0.1200 hc         1 DQ0       0.016700
     31 H3          -7.9790    -0.3260     0.6980 hc         1 DQ0       0.016700
     32 H4          -6.2730    -1.2740    -0.8840 hc         1 DQ0       0.056200
     33 H5          -5.9380     0.3400    -1.4860 hc         1 DQ0       0.056200
     34 H6          -5.2430     1.0590     0.7980 h1         1 DQ0       0.024200
     35 H7          -5.5810    -0.5620     1.4130 h1         1 DQ0       0.024200
     36 H8          -1.6620    -1.1870    -0.5630 ha         1 DQ0       0.138000
     37 H9          -3.9570     0.5860     2.6180 ha         1 DQ0       0.125000
     38 H10         -1.9270     0.7270     3.9660 ha         1 DQ0       0.101000
     39 H11          0.2300    -0.0620     3.1350 ha         1 DQ0       0.109000
     40 H12          1.7430    -1.6230     2.2900 h1         1 DQ0       0.054700
     41 H13          1.9640     0.0100     1.6330 h1         1 DQ0       0.054700
     42 H14          3.6030    -5.2830     0.3690 hn         1 DQ0       0.490500
     43 H15          4.8150    -5.1510    -0.8310 hn         1 DQ0       0.490500
     44 H16          5.0370     0.2390    -2.3140 hn         1 DQ0       0.493000
     45 H17          5.8550    -1.2140    -2.7070 hn         1 DQ0       0.493000
     46 H18          5.1440     1.2590     0.4130 ha         1 DQ0       0.131000
     47 H19          2.6480     4.5190    -0.8200 ha         1 DQ0       0.128000
     48 H20          0.9740     2.9070    -1.6560 ha         1 DQ0       0.127000
     49 H21          1.3790     0.4820    -1.4800 ha         1 DQ0       0.139000
     50 OAX         -3.9920    -0.4340     0.0870 os         1 DQ0      -0.342100
@<TRIPOS>BOND
     1     1     2 ar  
     2     1     5 ar  
     3     1    19 1   
     4     2     3 ar  
     5     2    23 1   
     6     3     4 ar  
     7     3    22 1   
     8     4    20 ar  
     9     5    20 ar  
    10     6     7 1   
    11     7     8 1   
    12     7     9 1   
    13     9    10 1   
    14     9    30 1   
    15     9    31 1   
    16    10    11 1   
    17    10    32 1   
    18    10    33 1   
    19    11    34 1   
    20    11    35 1   
    21    11    50 1   
    22    12    13 ar  
    23    12    14 ar  
    24    12    50 1   
    25    13    17 ar  
    26    13    36 1   
    27    14    15 ar  
    28    14    37 1   
    29    15    16 ar  
    30    15    38 1   
    31    16    17 ar  
    32    16    39 1   
    33    17    18 1   
    34    18    19 1   
    35    19    40 1   
    36    19    41 1   
    37    20    21 1   
    38    21    42 1   
    39    21    43 1   
    40    22    44 1   
    41    22    45 1   
    42    23    24 ar  
    43    23    29 ar  
    44    24    25 ar  
    45    24    46 1   
    46    25    26 1   
    47    25    27 ar  
    48    27    28 ar  
    49    27    47 1   
    50    28    29 ar  
    51    28    48 1   
    52    29    49 1   
@<TRIPOS>SUBSTRUCTURE
     1 DQ0         1 TEMP              0 ****  ****    0 ROOT
