@<TRIPOS>MOLECULE
DQ1
   58    60     1     0     0
SMALL
bcc


@<TRIPOS>ATOM
      1 C1           6.3720     1.1830     1.4060 ca         1 DQ1       0.774200
      2 N1           7.2580     2.1010     1.0840 nb         1 DQ1      -0.873000
      3 O1          -3.4080    -4.2140     0.1290 os         1 DQ1      -0.297900
      4 C2           5.4620     0.6490     0.4250 ca         1 DQ1      -0.360600
      5 N2           6.3430     0.7700     2.6760 nv         1 DQ1      -0.971500
      6 O2          -3.4940    -1.6370     0.0060 os         1 DQ1      -0.301900
      7 C3           3.6580    -0.7930    -0.3020 ca         1 DQ1      -0.146300
      8 O3          -7.6930     1.2340     0.0430 o          1 DQ1      -0.534000
      9 C4           2.6130    -1.8370    -0.0280 c3         1 DQ1       0.256100
     10 N4           1.2960    -1.2920    -0.2720 nu         1 DQ1      -0.745600
     11 O4          -6.9100     3.3180    -0.1120 os         1 DQ1      -0.431900
     12 C5          -3.3990    -5.6210     0.2070 c3         1 DQ1       0.123700
     13 N5           6.5120     2.1300    -1.1810 nb         1 DQ1      -0.820000
     14 C6          -3.6280    -0.2290    -0.0620 c3         1 DQ1       0.138400
     15 C7          -5.1060     0.1000    -0.0140 c3         1 DQ1      -0.073400
     16 C8          -5.3150     1.6040    -0.0840 c3         1 DQ1      -0.139400
     17 C9          -6.7670     2.0020    -0.0430 c          1 DQ1       0.643100
     18 C10         -8.1360     5.3580    -0.1810 c3         1 DQ1      -0.097100
     19 C11         -8.2410     3.8560    -0.0780 c3         1 DQ1       0.144400
     20 C12          7.2880     2.5300    -0.1940 ca         1 DQ1       0.952900
     21 C13          0.1670    -2.0800    -0.1300 ca         1 DQ1       0.167600
     22 C14         -1.0890    -1.4470    -0.1100 ca         1 DQ1      -0.257000
     23 C15         -2.2600    -2.1750    -0.0210 ca         1 DQ1       0.157100
     24 C16         -2.2120    -3.5840     0.0480 ca         1 DQ1       0.067100
     25 C17         -0.9780    -4.2010     0.0340 ca         1 DQ1      -0.146000
     26 C18          0.2080    -3.4650    -0.0460 ca         1 DQ1      -0.203000
     27 C19          3.7940    -0.2550    -1.5980 ca         1 DQ1      -0.069000
     28 C20          5.5970     1.1850    -0.8710 ca         1 DQ1       0.503600
     29 C21          4.7310     0.7020    -1.8800 ca         1 DQ1      -0.208300
     30 C22          4.4890    -0.3300     0.6900 ca         1 DQ1      -0.060000
     31 HN2          7.0170     1.1330     3.3280 hn         1 DQ1       0.444800
     32 HN2A         5.7340     0.0410     3.0000 hn         1 DQ1       0.444800
     33 HN3          8.1970     3.9380    -1.3450 hn         1 DQ1       0.436300
     34 HN3A         8.6980     3.9100     0.2920 hn         1 DQ1       0.436300
     35 H4           2.7700    -2.6860    -0.6990 h1         1 DQ1       0.041200
     36 H4A          2.7290    -2.2210     0.9950 h1         1 DQ1       0.041200
     37 HN4          1.1820    -0.3510     0.0720 hn         1 DQ1       0.405800
     38 H5          -4.4380    -5.9370     0.2710 h1         1 DQ1       0.036367
     39 H5A         -2.9470    -6.0810    -0.6770 h1         1 DQ1       0.036367
     40 H5B         -2.8690    -5.9810     1.0950 h1         1 DQ1       0.036367
     41 H6          -3.1040     0.2460     0.7760 h1         1 DQ1       0.030700
     42 H6A         -3.1810     0.1530    -0.9880 h1         1 DQ1       0.030700
     43 H7          -5.6140    -0.3890    -0.8490 hc         1 DQ1       0.073200
     44 H7A         -5.5360    -0.2960     0.9080 hc         1 DQ1       0.073200
     45 H8          -4.8020     2.1060     0.7430 hc         1 DQ1       0.070700
     46 H8A         -4.8740     2.0160    -0.9970 hc         1 DQ1       0.070700
     47 H10         -7.6660     5.6650    -1.1160 hc         1 DQ1       0.046700
     48 H10A        -9.1370     5.7880    -0.1540 hc         1 DQ1       0.046700
     49 H10B        -7.5690     5.7790     0.6490 hc         1 DQ1       0.046700
     50 H11         -8.8230     3.4480    -0.9070 h1         1 DQ1       0.048700
     51 H11A        -8.7310     3.5630     0.8520 h1         1 DQ1       0.048700
     52 H14         -1.1210    -0.3660    -0.1730 ha         1 DQ1       0.135000
     53 H17         -0.9010    -5.2780     0.0930 ha         1 DQ1       0.134000
     54 H18          1.1460    -4.0040    -0.0410 ha         1 DQ1       0.132000
     55 H19          3.1420    -0.6100    -2.3880 ha         1 DQ1       0.143000
     56 H21          4.8280     1.1050    -2.8800 ha         1 DQ1       0.151000
     57 H22          4.3770    -0.7400     1.6870 ha         1 DQ1       0.116000
     58 N3           8.2460     3.4420    -0.4720 nv         1 DQ1      -0.948500
@<TRIPOS>BOND
     1     1     2 ar  
     2     1     4 ar  
     3     1     5 1   
     4     2    20 ar  
     5     3    12 1   
     6     3    24 1   
     7     4    28 ar  
     8     4    30 ar  
     9     5    31 1   
    10     5    32 1   
    11     6    14 1   
    12     6    23 1   
    13     7     9 1   
    14     7    27 ar  
    15     7    30 ar  
    16     8    17 2   
    17     9    10 1   
    18     9    35 1   
    19     9    36 1   
    20    10    21 1   
    21    10    37 1   
    22    11    17 1   
    23    11    19 1   
    24    12    38 1   
    25    12    39 1   
    26    12    40 1   
    27    13    20 ar  
    28    13    28 ar  
    29    14    15 1   
    30    14    41 1   
    31    14    42 1   
    32    15    16 1   
    33    15    43 1   
    34    15    44 1   
    35    16    17 1   
    36    16    45 1   
    37    16    46 1   
    38    18    19 1   
    39    18    47 1   
    40    18    48 1   
    41    18    49 1   
    42    19    50 1   
    43    19    51 1   
    44    20    58 1   
    45    21    22 ar  
    46    21    26 ar  
    47    22    23 ar  
    48    22    52 1   
    49    23    24 ar  
    50    24    25 ar  
    51    25    26 ar  
    52    25    53 1   
    53    26    54 1   
    54    27    29 ar  
    55    27    55 1   
    56    28    29 ar  
    57    29    56 1   
    58    30    57 1   
    59    33    58 1   
    60    34    58 1   
@<TRIPOS>SUBSTRUCTURE
     1 DQ1         1 TEMP              0 ****  ****    0 ROOT
