@<TRIPOS>MOLECULE
DQ1
   58    60     1     0     0
SMALL
No Charge or Current Charge


@<TRIPOS>ATOM
      1 C1           5.9700     1.5340     1.2830 ca         1 DQ1       0.445900
      2 N1           6.8990     2.4440     0.9820 nb         1 DQ1      -0.347000
      3 O1          -3.5810    -3.8580     0.5300 os         1 DQ1      -0.321100
      4 C2           5.3780     0.7010     0.3090 ca         1 DQ1      -0.230000
      5 N2           5.6600     1.4840     2.6040 nv         1 DQ1      -1.081900
      6 O2          -3.3880    -1.2230    -0.2050 os         1 DQ1      -0.325100
      7 C3           3.8400    -1.0620    -0.4050 ca         1 DQ1      -0.146300
      8 O3          -7.1860     2.3440    -2.1330 o          1 DQ1      -0.485000
      9 C4           2.7780    -2.1000    -0.0780 c3         1 DQ1       0.256100
     10 N4           1.4470    -1.5110    -0.2490 nu         1 DQ1      -0.939200
     11 O4          -6.9070     3.0500     0.0350 os         1 DQ1      -0.455100
     12 C5          -3.7770    -5.2300     0.9150 c3         1 DQ1       0.146900
     13 N5           6.7560     1.7890    -1.3240 nb         1 DQ1      -0.294000
     14 C6          -3.3880     0.1610    -0.5880 c3         1 DQ1       0.161600
     15 C7          -4.8560     0.6200    -0.6780 c3         1 DQ1      -0.073400
     16 C8          -5.0040     2.1060    -1.0870 c3         1 DQ1      -0.139400
     17 C9          -6.4750     2.5200    -1.1520 c          1 DQ1       0.594100
     18 C10         -8.5000     4.0120     1.5490 c3         1 DQ1      -0.097100
     19 C11         -8.2810     3.4600     0.1310 c3         1 DQ1       0.167600
     20 C12          7.2360     2.5150    -0.3070 ca         1 DQ1       0.426900
     21 C13          0.2130    -2.1240    -0.0470 ca         1 DQ1       0.306000
     22 C14         -0.9490    -1.3640    -0.2280 ca         1 DQ1      -0.239000
     23 C15         -2.2210    -1.9480    -0.0340 ca         1 DQ1       0.157100
     24 C16         -2.3220    -3.3090     0.3460 ca         1 DQ1       0.067100
     25 C17         -1.1440    -4.0690     0.5260 ca         1 DQ1      -0.128000
     26 C18          0.1140    -3.4740     0.3290 ca         1 DQ1      -0.185000
     27 C19          4.2790    -0.8950    -1.7310 ca         1 DQ1      -0.051000
     28 C20          5.8170     0.8680    -1.0270 ca         1 DQ1       0.110000
     29 C21          5.2590     0.0640    -2.0360 ca         1 DQ1      -0.125000
     30 C22          4.3890    -0.2620     0.6140 ca         1 DQ1      -0.042000
     31 HN2          6.2830     1.9670     3.2470 hn         1 DQ1       0.500000
     32 HN2A         5.1990     0.6550     2.9650 hn         1 DQ1       0.500000
     33 HN3          8.2860     3.6860    -1.5980 hn         1 DQ1       0.491500
     34 HN3A         8.3870     4.1550     0.0650 hn         1 DQ1       0.491500
     35 H4           2.8970    -2.9680    -0.7420 h1         1 DQ1       0.041200
     36 H4A          2.9090    -2.4490     0.9560 h1         1 DQ1       0.041200
     37 HN4          1.4210    -0.5290    -0.5180 hn         1 DQ1       0.461000
     38 H5          -4.8490    -5.4490     1.0040 h1         1 DQ1       0.036367
     39 H5A         -3.3520    -5.9100     0.1660 h1         1 DQ1       0.036367
     40 H5B         -3.3080    -5.4340     1.8860 h1         1 DQ1       0.036367
     41 H6          -2.8580     0.7700     0.1560 h1         1 DQ1       0.030700
     42 H6A         -2.9020     0.2940    -1.5640 h1         1 DQ1       0.030700
     43 H7          -5.3820    -0.0110    -1.4050 hc         1 DQ1       0.073200
     44 H7A         -5.3380     0.4610     0.2950 hc         1 DQ1       0.073200
     45 H8          -4.4960     2.7100    -0.3260 hc         1 DQ1       0.070700
     46 H8A         -4.5440     2.2560    -2.0700 hc         1 DQ1       0.070700
     47 H10         -7.8430     4.8700     1.7350 hc         1 DQ1       0.046700
     48 H10A        -9.5380     4.3400     1.6730 hc         1 DQ1       0.046700
     49 H10B        -8.2910     3.2400     2.2990 hc         1 DQ1       0.046700
     50 H11         -8.5090     4.2430    -0.6050 h1         1 DQ1       0.048700
     51 H11A        -8.9580     2.6120    -0.0400 h1         1 DQ1       0.048700
     52 H14         -0.8490    -0.3240    -0.5190 ha         1 DQ1       0.117000
     53 H17         -1.1840    -5.1150     0.8170 ha         1 DQ1       0.116000
     54 H18          1.0090    -4.0720     0.4710 ha         1 DQ1       0.114000
     55 H19          3.8580    -1.5070    -2.5270 ha         1 DQ1       0.125000
     56 H21          5.5890     0.1850    -3.0650 ha         1 DQ1       0.133000
     57 H22          4.0370    -0.3950     1.6340 ha         1 DQ1       0.098000
     58 N3           8.1740     3.4340    -0.6190 nv         1 DQ1      -1.058900
@<TRIPOS>BOND
     1     1     2 ar  
     2     1     4 ar  
     3     1     5 1   
     4     2    20 ar  
     5     3    12 1   
     6     3    24 1   
     7     4    28 ar  
     8     4    30 ar  
     9     5    31 1   
    10     5    32 1   
    11     6    14 1   
    12     6    23 1   
    13     7     9 1   
    14     7    27 ar  
    15     7    30 ar  
    16     8    17 2   
    17     9    10 1   
    18     9    35 1   
    19     9    36 1   
    20    10    21 1   
    21    10    37 1   
    22    11    17 1   
    23    11    19 1   
    24    12    38 1   
    25    12    39 1   
    26    12    40 1   
    27    13    20 ar  
    28    13    28 ar  
    29    14    15 1   
    30    14    41 1   
    31    14    42 1   
    32    15    16 1   
    33    15    43 1   
    34    15    44 1   
    35    16    17 1   
    36    16    45 1   
    37    16    46 1   
    38    18    19 1   
    39    18    47 1   
    40    18    48 1   
    41    18    49 1   
    42    19    50 1   
    43    19    51 1   
    44    20    58 1   
    45    21    22 ar  
    46    21    26 ar  
    47    22    23 ar  
    48    22    52 1   
    49    23    24 ar  
    50    24    25 ar  
    51    25    26 ar  
    52    25    53 1   
    53    26    54 1   
    54    27    29 ar  
    55    27    55 1   
    56    28    29 ar  
    57    29    56 1   
    58    30    57 1   
    59    33    58 1   
    60    34    58 1   
@<TRIPOS>SUBSTRUCTURE
     1 DQ1         1 TEMP              0 ****  ****    0 ROOT
