@<TRIPOS>MOLECULE
DQ2
   53    55     1     0     0
SMALL
bcc


@<TRIPOS>ATOM
      1 C2          -6.7590     0.1690    -0.3100 c3         1 DQ2       0.095000
      2 C3          -4.4140    -0.1070     0.3860 c          1 DQ2       0.668100
      3 C4          -3.0290     0.5080     0.2980 c3         1 DQ2      -0.159400
      4 C5          -1.9530    -0.5650     0.3090 c3         1 DQ2       0.044700
      5 C6           0.7230    -1.0890     0.3180 cc         1 DQ2       0.425700
      6 C7           1.5290    -3.0350     0.5160 ca         1 DQ2      -0.230200
      7 N8           0.7610     3.3930     1.0660 n2         1 DQ2      -0.017200
      8 N9           0.2710     4.3400     1.5040 n1         1 DQ2       0.216000
      9 C10          2.6060    -2.2130     0.2430 ca         1 DQ2       0.489800
     10 C11          2.8440     0.2040    -0.2590 c5         1 DQ2       0.264800
     11 C12          2.6610     2.5040    -0.1750 c5         1 DQ2       0.106100
     12 C14          3.1710     2.1230    -1.5780 c5         1 DQ2       0.084100
     13 C1          -7.6470     1.3880    -0.5130 c3         1 DQ2       0.135800
     14 C13          1.3580     3.2740    -0.2780 c3         1 DQ2       0.110800
     15 C15          2.6470     0.6870    -1.6930 c5         1 DQ2       0.116100
     16 C8           1.8160    -4.4000     0.6930 ca         1 DQ2       0.787200
     17 C9           4.0280    -3.8820     0.3270 ca         1 DQ2       0.728900
     18 N1          -9.0390     0.9760    -0.5590 n8         1 DQ2      -0.880800
     19 N10         -0.3750     5.1890     1.9800 n2         1 DQ2      -0.216400
     20 N2          -5.3640     0.5520    -0.2910 ns         1 DQ2      -0.571900
     21 N3           0.3630    -2.3140     0.5640 nd         1 DQ2      -0.528100
     22 N4           0.8770    -5.3070     0.9690 nv         1 DQ2      -0.940500
     23 N5           3.0930    -4.7890     0.5880 nb         1 DQ2      -0.812000
     24 N6           3.8770    -2.5800     0.1380 nb         1 DQ2      -0.750000
     25 N7           2.0780    -0.9540     0.1100 na         1 DQ2      -0.254000
     26 O1          -4.6330    -1.1090     1.0540 o          1 DQ2      -0.582100
     27 O2           2.4690     1.2930     0.5440 os         1 DQ2      -0.384600
     28 O3           4.5660     2.0840    -1.6370 oh         1 DQ2      -0.533800
     29 O4           3.3240    -0.1490    -2.5680 oh         1 DQ2      -0.526800
     30 S1          -0.3470     0.2820     0.2870 ss         1 DQ2      -0.296300
     31 H1          -7.0020    -0.3120     0.6380 h1         1 DQ2       0.070700
     32 H2          -6.9530    -0.5590    -1.1040 h1         1 DQ2       0.070700
     33 H3          -2.9390     1.1350    -0.5920 hc         1 DQ2       0.053200
     34 H4          -2.9100     1.1710     1.1610 hc         1 DQ2       0.053200
     35 H5          -2.0140    -1.1780     1.2040 h1         1 DQ2       0.104200
     36 H6          -2.0260    -1.2120    -0.5650 h1         1 DQ2       0.104200
     37 H7           3.8930    -0.0710    -0.1020 h2         1 DQ2       0.143700
     38 H8           3.3920     3.1230     0.3510 h1         1 DQ2       0.086700
     39 H9           2.7490     2.7790    -2.3500 h1         1 DQ2       0.052700
     40 H10         -7.4220     2.1270     0.2680 h1         1 DQ2       0.026200
     41 H11         -7.3990     1.8570    -1.4690 h1         1 DQ2       0.026200
     42 H12          0.6030     2.7520    -0.8680 h1         1 DQ2       0.115200
     43 H13          1.5200     4.2680    -0.6950 h1         1 DQ2       0.115200
     44 H14          1.5710     0.7290    -1.9130 h1         1 DQ2       0.052700
     45 H15          5.0420    -4.2600     0.2600 h5         1 DQ2       0.059100
     46 H16         -9.3410     0.7000     0.3670 hn         1 DQ2       0.347800
     47 H17         -9.6160     1.7680    -0.8100 hn         1 DQ2       0.347800
     48 H19          0.1360     5.8800     2.5420 hn         1 DQ2       0.521400
     49 H20         -5.0850     1.3220    -0.8770 hn         1 DQ2       0.304500
     50 H21         -0.0960    -5.0570     0.9850 hn         1 DQ2       0.458300
     51 H22          1.1170    -6.2820     1.0210 hn         1 DQ2       0.458300
     52 H23          4.9020     2.9850    -1.6040 ho         1 DQ2       0.414000
     53 H24          3.0450     0.0470    -3.4680 ho         1 DQ2       0.424000
@<TRIPOS>BOND
     1     1    13 1   
     2     1    20 1   
     3     1    31 1   
     4     1    32 1   
     5     2     3 1   
     6     2    20 1   
     7     2    26 2   
     8     3     4 1   
     9     3    33 1   
    10     3    34 1   
    11     4    30 1   
    12     4    35 1   
    13     4    36 1   
    14     5    21 2   
    15     5    25 1   
    16     5    30 1   
    17     6     9 ar  
    18     6    16 ar  
    19     6    21 1   
    20     7     8 2   
    21     7    14 1   
    22     8    19 2   
    23     9    24 ar  
    24     9    25 1   
    25    10    15 1   
    26    10    25 1   
    27    10    27 1   
    28    10    37 1   
    29    11    12 1   
    30    11    14 1   
    31    11    27 1   
    32    11    38 1   
    33    12    15 1   
    34    12    28 1   
    35    12    39 1   
    36    13    18 1   
    37    13    40 1   
    38    13    41 1   
    39    14    42 1   
    40    14    43 1   
    41    15    29 1   
    42    15    44 1   
    43    16    22 1   
    44    16    23 ar  
    45    17    23 ar  
    46    17    24 ar  
    47    17    45 1   
    48    18    46 1   
    49    18    47 1   
    50    19    48 1   
    51    20    49 1   
    52    22    50 1   
    53    22    51 1   
    54    28    52 1   
    55    29    53 1   
@<TRIPOS>SUBSTRUCTURE
     1 DQ2         1 TEMP              0 ****  ****    0 ROOT
