@<TRIPOS>MOLECULE
DQ2
   53    55     1     0     0
SMALL
No Charge or Current Charge


@<TRIPOS>ATOM
      1 C2          -6.7830    -0.1730    -0.7790 c3         1 DQ2       0.095000
      2 C3          -4.5820     0.4670     0.2740 c          1 DQ2       0.601100
      3 C4          -3.1850     1.0080    -0.0220 c3         1 DQ2      -0.159400
      4 C5          -2.1250    -0.0930     0.1710 c3         1 DQ2       0.092600
      5 C6           0.5910    -0.8190     0.0760 cc         1 DQ2       0.425700
      6 C7           1.2990    -2.7240     0.6840 ca         1 DQ2      -0.099600
      7 N8           1.6070     3.9530     1.1470 n2         1 DQ2      -0.017200
      8 N9           0.7590     3.3120     1.7880 n1         1 DQ2       0.216000
      9 C10          2.4250    -2.0000     0.3580 ca         1 DQ2       0.161500
     10 C11          2.8140     0.3150    -0.5700 c5         1 DQ2       0.317300
     11 C12          3.0480     2.6600    -0.4070 c5         1 DQ2       0.129300
     12 C14          3.3420     2.2080    -1.8840 c5         1 DQ2       0.107300
     13 C1          -7.7630     0.9010    -0.2420 c3         1 DQ2       0.135800
     14 C13          1.8030     3.5790    -0.2590 c3         1 DQ2       0.110800
     15 C15          2.4660     0.9270    -1.9670 c5         1 DQ2       0.139300
     16 C8           1.4680    -4.0530     1.1210 ca         1 DQ2       0.458900
     17 C9           3.7290    -3.8100     0.8650 ca         1 DQ2       0.202900
     18 N1          -9.1690     0.4390    -0.2400 n8         1 DQ2      -0.991200
     19 N10          1.0520     3.3170     2.9910 n2         1 DQ2      -0.216400
     20 N2          -5.3910     0.2980    -0.8270 ns         1 DQ2      -0.504900
     21 N3           0.1200    -1.9880     0.5220 nd         1 DQ2      -0.528100
     22 N4           0.4200    -4.8480     1.4660 nv         1 DQ2      -1.050900
     23 N5           2.6880    -4.6060     1.2110 nb         1 DQ2      -0.286000
     24 N6           3.6630    -2.5260     0.4400 nb         1 DQ2      -0.224000
     25 N7           1.9820    -0.7650    -0.0290 na         1 DQ2      -0.283300
     26 O1          -4.9630     0.2240     1.4100 o          1 DQ2      -0.582100
     27 O2           2.8340     1.4330     0.3460 os         1 DQ2      -0.431000
     28 O3           4.7280     1.8810    -2.1000 oh         1 DQ2      -0.656000
     29 O4           2.8580     0.1140    -3.0820 oh         1 DQ2      -0.649000
     30 S1          -0.4410     0.5810    -0.1890 ss         1 DQ2      -0.344200
     31 H1          -6.8340    -1.0680    -0.1440 h1         1 DQ2       0.070700
     32 H2          -7.0870    -0.4630    -1.7940 h1         1 DQ2       0.070700
     33 H3          -3.1270     1.3730    -1.0550 hc         1 DQ2       0.053200
     34 H4          -2.9650     1.8250     0.6750 hc         1 DQ2       0.053200
     35 H5          -2.1530    -0.4640     1.2050 h1         1 DQ2       0.104200
     36 H6          -2.3290    -0.9350    -0.5030 h1         1 DQ2       0.104200
     37 H7           3.8300    -0.0970    -0.6280 h2         1 DQ2       0.143700
     38 H8           3.9120     3.1890     0.0190 h1         1 DQ2       0.086700
     39 H9           3.0120     2.9640    -2.6110 h1         1 DQ2       0.052700
     40 H10         -7.4850     1.1790     0.7830 h1         1 DQ2       0.026200
     41 H11         -7.6950     1.7980    -0.8720 h1         1 DQ2       0.026200
     42 H12          0.9170     3.0780    -0.6690 h1         1 DQ2       0.115200
     43 H13          1.9650     4.4840    -0.8570 h1         1 DQ2       0.115200
     44 H14          1.4040     1.1860    -2.0460 h1         1 DQ2       0.052700
     45 H15          4.7230    -4.2500     0.9360 h5         1 DQ2       0.059100
     46 H16         -9.2730    -0.3260     0.4390 hn         1 DQ2       0.403000
     47 H17         -9.7650     1.1810     0.1500 hn         1 DQ2       0.403000
     48 H19          0.2230     3.0750     3.5480 hn         1 DQ2       0.521400
     49 H20         -4.9930     0.5360    -1.7280 hn         1 DQ2       0.304500
     50 H21         -0.5050    -4.5240     1.1940 hn         1 DQ2       0.513500
     51 H22          0.5630    -5.8550     1.4770 hn         1 DQ2       0.513500
     52 H23          5.2380     2.7260    -2.1320 ho         1 DQ2       0.513000
     53 H24          3.8030     0.3580    -3.2460 ho         1 DQ2       0.523000
@<TRIPOS>BOND
     1     1    13 1   
     2     1    20 1   
     3     1    31 1   
     4     1    32 1   
     5     2     3 1   
     6     2    20 1   
     7     2    26 2   
     8     3     4 1   
     9     3    33 1   
    10     3    34 1   
    11     4    30 1   
    12     4    35 1   
    13     4    36 1   
    14     5    21 2   
    15     5    25 1   
    16     5    30 1   
    17     6     9 ar  
    18     6    16 ar  
    19     6    21 1   
    20     7     8 2   
    21     7    14 1   
    22     8    19 2   
    23     9    24 ar  
    24     9    25 1   
    25    10    15 1   
    26    10    25 1   
    27    10    27 1   
    28    10    37 1   
    29    11    12 1   
    30    11    14 1   
    31    11    27 1   
    32    11    38 1   
    33    12    15 1   
    34    12    28 1   
    35    12    39 1   
    36    13    18 1   
    37    13    40 1   
    38    13    41 1   
    39    14    42 1   
    40    14    43 1   
    41    15    29 1   
    42    15    44 1   
    43    16    22 1   
    44    16    23 ar  
    45    17    23 ar  
    46    17    24 ar  
    47    17    45 1   
    48    18    46 1   
    49    18    47 1   
    50    19    48 1   
    51    20    49 1   
    52    22    50 1   
    53    22    51 1   
    54    28    52 1   
    55    29    53 1   
@<TRIPOS>SUBSTRUCTURE
     1 DQ2         1 TEMP              0 ****  ****    0 ROOT
