@<TRIPOS>MOLECULE
DQ3
   44    46     1     0     0
SMALL
bcc


@<TRIPOS>ATOM
      1 C4           1.7080    -1.3300     0.5990 ca         1 DQ3       0.537600
      2 C5           2.4940    -0.4650    -0.1430 cp         1 DQ3      -0.415600
      3 C6           3.7360    -0.9830    -0.5810 ca         1 DQ3       0.762200
      4 N1           4.1140    -2.2250    -0.2950 nb         1 DQ3      -0.857000
      5 N3           2.0820    -2.5780     0.8850 nb         1 DQ3      -0.812000
      6 CAL          2.2560     1.9420     0.4580 ca         1 DQ3      -0.122000
      7 CAK          1.8750     3.2350     0.1360 ca         1 DQ3       0.023400
      8 CL           2.0800     4.4920     1.3130 cl         1 DQ3      -0.113400
      9 CAM          1.3390     3.5450    -1.1040 ca         1 DQ3      -0.121000
     10 CAO          1.1870     2.5280    -2.0350 ca         1 DQ3      -0.122000
     11 CAN          1.5590     1.2270    -1.7280 ca         1 DQ3      -0.119000
     12 CAI          2.0900     0.9200    -0.4760 cp         1 DQ3      -0.005000
     13 NAG          4.5780    -0.2410    -1.3220 nv         1 DQ3      -0.962500
     14 C2           3.2690    -2.9650     0.4190 ca         1 DQ3       0.940900
     15 NAH          3.6400    -4.2430     0.6680 nv         1 DQ3      -0.940500
     16 CAJ          0.3470    -0.9240     1.0840 c3         1 DQ3      -0.134700
     17 CAP         -0.7220    -1.2370     0.0350 c3         1 DQ3      -0.076400
     18 CAR         -2.0910    -0.8120     0.5210 c3         1 DQ3       0.142400
     19 OAS         -3.0370    -1.1400    -0.4820 os         1 DQ3      -0.325900
     20 CAT         -4.3410    -0.8830    -0.2570 ca         1 DQ3       0.146100
     21 CAV         -4.8340    -0.2720     0.8940 ca         1 DQ3      -0.191500
     22 CAU         -6.2020    -0.0560     1.0250 ca         1 DQ3      -0.092000
     23 CAW         -7.0860    -0.4360     0.0280 ca         1 DQ3      -0.168000
     24 CAY         -6.5870    -1.0440    -1.1190 ca         1 DQ3      -0.092000
     25 CAX         -5.2290    -1.2670    -1.2660 ca         1 DQ3      -0.191500
     26 H1           2.6760     1.7220     1.4310 ha         1 DQ3       0.150000
     27 H2           1.0490     4.5590    -1.3420 ha         1 DQ3       0.148000
     28 H3           0.7700     2.7580    -3.0070 ha         1 DQ3       0.139000
     29 H4           1.4340     0.4420    -2.4630 ha         1 DQ3       0.144000
     30 H5           4.4330     0.7470    -1.4310 hn         1 DQ3       0.439300
     31 H6           5.5070    -0.5870    -1.4910 hn         1 DQ3       0.439300
     32 H7           3.1440    -4.7410     1.3880 hn         1 DQ3       0.433800
     33 H8           4.6080    -4.4860     0.5460 hn         1 DQ3       0.433800
     34 H9           0.1250    -1.4660     2.0060 hc         1 DQ3       0.061200
     35 H10          0.3270     0.1420     1.3200 hc         1 DQ3       0.061200
     36 H11         -0.4860    -0.7210    -0.8980 hc         1 DQ3       0.063700
     37 H12         -0.7200    -2.3090    -0.1780 hc         1 DQ3       0.063700
     38 H13         -2.3380    -1.3230     1.4590 h1         1 DQ3       0.033700
     39 H14         -2.1030     0.2660     0.7210 h1         1 DQ3       0.033700
     40 H15         -4.1780     0.0370     1.6960 ha         1 DQ3       0.138000
     41 H16         -6.5720     0.4180     1.9250 ha         1 DQ3       0.128500
     42 H17         -8.1480    -0.2630     0.1410 ha         1 DQ3       0.132000
     43 H18         -7.2600    -1.3500    -1.9100 ha         1 DQ3       0.128500
     44 H19         -4.8430    -1.7430    -2.1590 ha         1 DQ3       0.138000
@<TRIPOS>BOND
     1     1     2 ar  
     2     1     5 ar  
     3     1    16 1   
     4     2     3 ar  
     5     2    12 1   
     6     3     4 ar  
     7     3    13 1   
     8     4    14 ar  
     9     5    14 ar  
    10     6     7 ar  
    11     6    12 ar  
    12     6    26 1   
    13     7     8 1   
    14     7     9 ar  
    15     9    10 ar  
    16     9    27 1   
    17    10    11 ar  
    18    10    28 1   
    19    11    12 ar  
    20    11    29 1   
    21    13    30 1   
    22    13    31 1   
    23    14    15 1   
    24    15    32 1   
    25    15    33 1   
    26    16    17 1   
    27    16    34 1   
    28    16    35 1   
    29    17    18 1   
    30    17    36 1   
    31    17    37 1   
    32    18    19 1   
    33    18    38 1   
    34    18    39 1   
    35    19    20 1   
    36    20    21 ar  
    37    20    25 ar  
    38    21    22 ar  
    39    21    40 1   
    40    22    23 ar  
    41    22    41 1   
    42    23    24 ar  
    43    23    42 1   
    44    24    25 ar  
    45    24    43 1   
    46    25    44 1   
@<TRIPOS>SUBSTRUCTURE
     1 DQ3         1 TEMP              0 ****  ****    0 ROOT
