@<TRIPOS>MOLECULE
DQ3
   44    46     1     0     0
SMALL
No Charge or Current Charge


@<TRIPOS>ATOM
      1 C4           1.8210    -1.4220     0.6400 ca         1 DQ3       0.209300
      2 C5           2.5580    -0.5300    -0.1870 cp         1 DQ3      -0.285000
      3 C6           3.7990    -1.0180    -0.6500 ca         1 DQ3       0.433900
      4 N1           4.2770    -2.2240    -0.3390 nb         1 DQ3      -0.331000
      5 N3           2.2980    -2.6440     0.9510 nb         1 DQ3      -0.286000
      6 CAL          1.9130     1.8400     0.4210 ca         1 DQ3      -0.104000
      7 CAK          1.4240     3.1090     0.0730 ca         1 DQ3       0.115000
      8 Cl           1.2570     4.3520     1.3050 cl         1 DQ3      -0.205000
      9 CAM          1.0670     3.3880    -1.2570 ca         1 DQ3      -0.103000
     10 CAO          1.2030     2.3940    -2.2410 ca         1 DQ3      -0.104000
     11 CAN          1.6920     1.1230    -1.8900 ca         1 DQ3      -0.101000
     12 CAI          2.0490     0.8240    -0.5540 cp         1 DQ3      -0.005000
     13 NAG          4.6170    -0.2770    -1.4360 nv         1 DQ3      -1.072900
     14 C2           3.4920    -2.9660     0.4440 ca         1 DQ3       0.414900
     15 NAH          3.9670    -4.1900     0.7660 nv         1 DQ3      -1.050900
     16 CAJ          0.4400    -1.0970     1.2030 c3         1 DQ3      -0.134700
     17 CAP         -0.6770    -1.2060     0.1390 c3         1 DQ3      -0.076400
     18 CAR         -2.0710    -0.8480     0.6890 c3         1 DQ3       0.165600
     19 OAS         -3.0130    -0.9850    -0.3880 os         1 DQ3      -0.349100
     20 CAT         -4.3580    -0.7280    -0.2240 ca         1 DQ3       0.146100
     21 CAV         -4.9100    -0.3140     1.0090 ca         1 DQ3      -0.173500
     22 CAU         -6.2900    -0.0650     1.1130 ca         1 DQ3      -0.074000
     23 CAW         -7.1220    -0.2290    -0.0070 ca         1 DQ3      -0.150000
     24 CAY         -6.5770    -0.6400    -1.2350 ca         1 DQ3      -0.074000
     25 CAX         -5.1970    -0.8880    -1.3400 ca         1 DQ3      -0.173500
     26 H1           2.1910     1.6380     1.4520 ha         1 DQ3       0.132000
     27 H2           0.6880     4.3710    -1.5230 ha         1 DQ3       0.130000
     28 H3           0.9280     2.6060    -3.2720 ha         1 DQ3       0.121000
     29 H4           1.7890     0.3560    -2.6550 ha         1 DQ3       0.126000
     30 H5           4.4250     0.7170    -1.5150 hn         1 DQ3       0.494500
     31 H6           5.5850    -0.5690    -1.5330 hn         1 DQ3       0.494500
     32 H7           3.5220    -4.6920     1.5300 hn         1 DQ3       0.489000
     33 H8           4.9500    -4.3880     0.5960 hn         1 DQ3       0.489000
     34 H9           0.2000    -1.7710     2.0350 hc         1 DQ3       0.061200
     35 H10          0.4330    -0.0890     1.6330 hc         1 DQ3       0.061200
     36 H11         -0.4490    -0.5410    -0.7020 hc         1 DQ3       0.063700
     37 H12         -0.6990    -2.2290    -0.2570 hc         1 DQ3       0.063700
     38 H13         -2.3240    -1.5250     1.5150 h1         1 DQ3       0.033700
     39 H14         -2.0610     0.1830     1.0660 h1         1 DQ3       0.033700
     40 H15         -4.2890    -0.1800     1.8900 ha         1 DQ3       0.120000
     41 H16         -6.7150     0.2530     2.0630 ha         1 DQ3       0.110500
     42 H17         -8.1890    -0.0360     0.0760 ha         1 DQ3       0.114000
     43 H18         -7.2210    -0.7660    -2.1030 ha         1 DQ3       0.110500
     44 H19         -4.7750    -1.2060    -2.2890 ha         1 DQ3       0.120000
@<TRIPOS>BOND
     1     1     2 ar  
     2     1     5 ar  
     3     1    16 1   
     4     2     3 ar  
     5     2    12 1   
     6     3     4 ar  
     7     3    13 1   
     8     4    14 ar  
     9     5    14 ar  
    10     6     7 ar  
    11     6    12 ar  
    12     6    26 1   
    13     7     8 1   
    14     7     9 ar  
    15     9    10 ar  
    16     9    27 1   
    17    10    11 ar  
    18    10    28 1   
    19    11    12 ar  
    20    11    29 1   
    21    13    30 1   
    22    13    31 1   
    23    14    15 1   
    24    15    32 1   
    25    15    33 1   
    26    16    17 1   
    27    16    34 1   
    28    16    35 1   
    29    17    18 1   
    30    17    36 1   
    31    17    37 1   
    32    18    19 1   
    33    18    38 1   
    34    18    39 1   
    35    19    20 1   
    36    20    21 ar  
    37    20    25 ar  
    38    21    22 ar  
    39    21    40 1   
    40    22    23 ar  
    41    22    41 1   
    42    23    24 ar  
    43    23    42 1   
    44    24    25 ar  
    45    24    43 1   
    46    25    44 1   
@<TRIPOS>SUBSTRUCTURE
     1 DQ3         1 TEMP              0 ****  ****    0 ROOT
