@<TRIPOS>MOLECULE
DQ4
   31    33     1     0     0
SMALL
No Charge or Current Charge


@<TRIPOS>ATOM
      1 N1          54.3580   -30.0730     9.3370 ns         1 DQ4      -0.479500
      2 C2          54.3540   -29.2530     8.2420 c          1 DQ4       0.571000
      3 C4          52.2920   -31.2810     8.7310 c6         1 DQ4      -0.163400
      4 C5          51.8910   -30.0200     7.9290 c6         1 DQ4      -0.084400
      5 N           52.7440   -28.0620     6.6150 n          1 DQ4      -0.388400
      6 C           52.4690   -27.9630     5.2480 c          1 DQ4       0.593600
      7 O           52.4690   -28.8730     4.4310 o          1 DQ4      -0.493000
      8 C1          53.1270   -29.3370     7.2870 c6         1 DQ4       0.039700
      9 C10         52.0900   -24.4590     6.3040 ca         1 DQ4       0.015000
     10 C11         52.3020   -25.8410     6.2120 ca         1 DQ4      -0.212600
     11 C12         52.6690   -26.8250     7.2660 c          1 DQ4       0.606600
     12 C3          53.4700   -31.0500     9.6830 c          1 DQ4       0.580000
     13 C6          52.1800   -26.5180     5.0070 ca         1 DQ4      -0.085600
     14 C7          51.8390   -25.8440     3.8250 ca         1 DQ4      -0.137000
     15 C8          51.6210   -24.4530     3.8940 ca         1 DQ4       0.349000
     16 C9          51.7450   -23.7690     5.1220 ca         1 DQ4      -0.199000
     17 N2          51.2870   -23.7560     2.7660 nv         1 DQ4      -1.101000
     18 O1          53.5940   -31.6700    10.7250 o          1 DQ4      -0.512000
     19 O2          55.3080   -28.5240     8.0180 o          1 DQ4      -0.502000
     20 O3          52.8400   -26.6050     8.4560 o          1 DQ4      -0.489000
     21 H1          55.1440   -29.9620     9.9600 hn         1 DQ4       0.331500
     22 H2          51.4530   -31.7380     9.2730 hc         1 DQ4       0.082200
     23 H3          52.6440   -32.0240     8.0020 hc         1 DQ4       0.082200
     24 H4          51.3960   -29.3090     8.6060 hc         1 DQ4       0.072700
     25 H5          51.1530   -30.2770     7.1550 hc         1 DQ4       0.072700
     26 H6          53.4850   -30.0270     6.5090 h1         1 DQ4       0.099700
     27 H7          52.1860   -23.9370     7.2550 ha         1 DQ4       0.135000
     28 H8          51.7450   -26.3810     2.8860 ha         1 DQ4       0.136000
     29 H9          51.5730   -22.6970     5.1650 ha         1 DQ4       0.120000
     30 H10         51.3050   -22.7370     2.7850 hn         1 DQ4       0.479500
     31 H11         51.3720   -24.2010     1.8530 hn         1 DQ4       0.479500
@<TRIPOS>BOND
     1     1     2 1   
     2     1    12 1   
     3     1    21 1   
     4     2     8 1   
     5     2    19 2   
     6     3     4 1   
     7     3    12 1   
     8     3    22 1   
     9     3    23 1   
    10     4     8 1   
    11     4    24 1   
    12     4    25 1   
    13     5     6 1   
    14     5     8 1   
    15     5    11 1   
    16     6     7 2   
    17     6    13 1   
    18     8    26 1   
    19     9    10 ar  
    20     9    16 ar  
    21     9    27 1   
    22    10    11 1   
    23    10    13 ar  
    24    11    20 2   
    25    12    18 2   
    26    13    14 ar  
    27    14    15 ar  
    28    14    28 1   
    29    15    16 ar  
    30    15    17 1   
    31    16    29 1   
    32    17    30 1   
    33    17    31 1   
@<TRIPOS>SUBSTRUCTURE
     1 DQ4         1 TEMP              0 ****  ****    0 ROOT
