@<TRIPOS>MOLECULE
DQ4
   31    33     1     0     0
SMALL
abcg2


@<TRIPOS>ATOM
      1 N1          54.4510   -30.0530     9.0880 ns         1 DQ4      -0.479500
      2 C2          54.2530   -29.1710     8.0530 c          1 DQ4       0.571000
      3 C4          52.3130   -31.2070     8.7800 c6         1 DQ4      -0.163400
      4 C5          51.8390   -29.8970     8.1750 c6         1 DQ4      -0.084400
      5 N           52.6100   -28.1050     6.6340 n          1 DQ4      -0.388400
      6 C           52.5220   -27.9620     5.2590 c          1 DQ4       0.593600
      7 O           52.6680   -28.8440     4.4510 o          1 DQ4      -0.493000
      8 C1          52.9460   -29.3350     7.2930 c6         1 DQ4       0.039700
      9 C10         51.8810   -24.5430     6.3300 ca         1 DQ4       0.015000
     10 C11         52.1510   -25.8990     6.2590 ca         1 DQ4      -0.212600
     11 C12         52.4170   -26.8910     7.3010 c          1 DQ4       0.606600
     12 C3          53.6180   -31.0730     9.5130 c          1 DQ4       0.580000
     13 C6          52.2160   -26.5290     5.0240 ca         1 DQ4      -0.085600
     14 C7          52.0230   -25.8700     3.8390 ca         1 DQ4      -0.137000
     15 C8          51.7470   -24.4860     3.8930 ca         1 DQ4       0.349000
     16 C9          51.6810   -23.8490     5.1520 ca         1 DQ4      -0.199000
     17 N2          51.5130   -23.7880     2.7570 nv         1 DQ4      -1.101000
     18 O1          53.9670   -31.8060    10.4080 o          1 DQ4      -0.512000
     19 O2          55.0890   -28.3530     7.7560 o          1 DQ4      -0.502000
     20 O3          52.4720   -26.7590     8.4990 o          1 DQ4      -0.489000
     21 H1          55.3390   -29.9730     9.5720 hn         1 DQ4       0.331500
     22 H2          51.5760   -31.6190     9.4690 hc         1 DQ4       0.082200
     23 H3          52.4620   -31.9540     7.9930 hc         1 DQ4       0.082200
     24 H4          51.5740   -29.1910     8.9620 hc         1 DQ4       0.072700
     25 H5          50.9490   -30.0670     7.5710 hc         1 DQ4       0.072700
     26 H6          53.1520   -30.0680     6.5030 h1         1 DQ4       0.099700
     27 H7          51.8260   -24.0260     7.2800 ha         1 DQ4       0.135000
     28 H8          52.0820   -26.3840     2.8870 ha         1 DQ4       0.136000
     29 H9          51.4700   -22.7870     5.1870 ha         1 DQ4       0.120000
     30 H10         51.5290   -22.7830     2.7870 hn         1 DQ4       0.479500
     31 H11         51.7680   -24.1930     1.8720 hn         1 DQ4       0.479500
@<TRIPOS>BOND
     1     1     2 1   
     2     1    12 1   
     3     1    21 1   
     4     2     8 1   
     5     2    19 2   
     6     3     4 1   
     7     3    12 1   
     8     3    22 1   
     9     3    23 1   
    10     4     8 1   
    11     4    24 1   
    12     4    25 1   
    13     5     6 1   
    14     5     8 1   
    15     5    11 1   
    16     6     7 2   
    17     6    13 1   
    18     8    26 1   
    19     9    10 ar  
    20     9    16 ar  
    21     9    27 1   
    22    10    11 1   
    23    10    13 ar  
    24    11    20 2   
    25    12    18 2   
    26    13    14 ar  
    27    14    15 ar  
    28    14    28 1   
    29    15    16 ar  
    30    15    17 1   
    31    16    29 1   
    32    17    30 1   
    33    17    31 1   
@<TRIPOS>SUBSTRUCTURE
     1 DQ4         1 TEMP              0 ****  ****    0 ROOT
