@<TRIPOS>MOLECULE
DQ5
   55    58     1     0     0
SMALL
bcc


@<TRIPOS>ATOM
      1 C02          0.8200     0.9280    -0.3020 c3         1 DQ5       0.196800
      2 C03         -0.3050     0.8960    -1.3230 c3         1 DQ5      -0.083400
      3 C04         -1.6720     0.7540    -0.6670 c3         1 DQ5      -0.074400
      4 C05         -2.8080     0.7330    -1.6900 c3         1 DQ5      -0.119700
      5 C06         -4.1500     0.5740    -1.0380 ca         1 DQ5       0.385600
      6 C07         -4.9500     1.6800    -0.7480 ca         1 DQ5      -0.192300
      7 C08         -6.1610     1.4920    -0.1140 ca         1 DQ5      -0.191000
      8 C09         -6.5540     0.2020     0.2260 ca         1 DQ5       0.039800
      9 C11         -5.6940    -0.8560    -0.0960 ca         1 DQ5       0.355000
     10 C12         -6.0730    -2.2300     0.2460 ce         1 DQ5       0.304200
     11 C16          3.2750     0.6570    -0.3450 ca         1 DQ5       0.178600
     12 C17          3.4970    -0.7040    -0.1800 ca         1 DQ5      -0.218600
     13 C18          2.5020    -1.7180    -0.6810 c6         1 DQ5      -0.019100
     14 C19          3.1110    -3.0950    -0.9040 c6         1 DQ5      -0.075400
     15 C20          3.8730    -3.5190     0.3400 c6         1 DQ5      -0.074400
     16 C21          5.0480    -2.5810     0.5670 c6         1 DQ5      -0.132700
     17 C22          4.7190    -1.1180     0.4040 ca         1 DQ5       0.463600
     18 C24          5.4750     1.0340     0.6220 ca         1 DQ5       0.423600
     19 C25          6.5060     1.9130     1.0340 ca         1 DQ5      -0.169300
     20 C26          6.3600     3.2670     0.9170 ca         1 DQ5      -0.120000
     21 C27          5.1700     3.8080     0.3920 ca         1 DQ5      -0.132000
     22 C28          4.1590     2.9800    -0.0190 ca         1 DQ5      -0.114000
     23 C29          4.2890     1.5740     0.0700 ca         1 DQ5      -0.186300
     24 N01          2.1150     1.1160    -0.9470 nu         1 DQ5      -0.746600
     25 N13         -5.2930    -3.1950    -0.0260 n2         1 DQ5      -0.392200
     26 N15         -4.5310    -0.6500    -0.7110 nb         1 DQ5      -0.619000
     27 N23          5.6640    -0.2900     0.7850 nb         1 DQ5      -0.696000
     28 O10         -7.7160    -0.0700     0.8440 oh         1 DQ5      -0.484100
     29 O14         -5.8050    -4.3960     0.3600 oh         1 DQ5      -0.381500
     30 H1           0.6390     1.7280     0.4260 h1         1 DQ5       0.039700
     31 H2           0.8280     0.0010     0.2680 h1         1 DQ5       0.039700
     32 H3          -0.2800     1.8120    -1.9220 hc         1 DQ5       0.047700
     33 H4          -0.1370     0.0660    -2.0160 hc         1 DQ5       0.047700
     34 H5          -1.7050    -0.1660    -0.0750 hc         1 DQ5       0.047200
     35 H6          -1.8310     1.5790     0.0360 hc         1 DQ5       0.047200
     36 H7          -2.7870     1.6560    -2.2750 hc         1 DQ5       0.056200
     37 H8          -2.6490    -0.0920    -2.3890 hc         1 DQ5       0.056200
     38 H9          -4.6250     2.6760    -1.0180 ha         1 DQ5       0.143000
     39 H10         -6.7990     2.3380     0.1150 ha         1 DQ5       0.139000
     40 H11         -7.0300    -2.3990     0.7350 h4         1 DQ5       0.023800
     41 H12          1.6830    -1.8290     0.0390 hc         1 DQ5       0.051700
     42 H13          2.0430    -1.3410    -1.5990 hc         1 DQ5       0.051700
     43 H14          2.3170    -3.8060    -1.1390 hc         1 DQ5       0.044200
     44 H15          3.7860    -3.0780    -1.7660 hc         1 DQ5       0.044200
     45 H16          3.2000    -3.5000     1.2020 hc         1 DQ5       0.043700
     46 H17          4.2370    -4.5450     0.2510 hc         1 DQ5       0.043700
     47 H18          5.4840    -2.7300     1.5570 hc         1 DQ5       0.062200
     48 H19          5.8420    -2.8210    -0.1480 hc         1 DQ5       0.062200
     49 H20          7.4100     1.4810     1.4440 ha         1 DQ5       0.148000
     50 H21          7.1550     3.9290     1.2360 ha         1 DQ5       0.133000
     51 H22          5.0500     4.8800     0.3200 ha         1 DQ5       0.130000
     52 H23          3.2510     3.4270    -0.4020 ha         1 DQ5       0.121000
     53 H24          2.2000     2.0570    -1.3000 hn         1 DQ5       0.390800
     54 H25         -8.2150     0.7410     0.9980 ho         1 DQ5       0.431000
     55 H26         -5.1300    -5.0350     0.1090 ho         1 DQ5       0.433000
@<TRIPOS>BOND
     1     1     2 1   
     2     1    24 1   
     3     1    30 1   
     4     1    31 1   
     5     2     3 1   
     6     2    32 1   
     7     2    33 1   
     8     3     4 1   
     9     3    34 1   
    10     3    35 1   
    11     4     5 1   
    12     4    36 1   
    13     4    37 1   
    14     5     6 ar  
    15     5    26 ar  
    16     6     7 ar  
    17     6    38 1   
    18     7     8 ar  
    19     7    39 1   
    20     8     9 ar  
    21     8    28 1   
    22     9    10 1   
    23     9    26 ar  
    24    10    25 2   
    25    10    40 1   
    26    11    12 ar  
    27    11    23 ar  
    28    11    24 1   
    29    12    13 1   
    30    12    17 ar  
    31    13    14 1   
    32    13    41 1   
    33    13    42 1   
    34    14    15 1   
    35    14    43 1   
    36    14    44 1   
    37    15    16 1   
    38    15    45 1   
    39    15    46 1   
    40    16    17 1   
    41    16    47 1   
    42    16    48 1   
    43    17    27 ar  
    44    18    19 ar  
    45    18    23 ar  
    46    18    27 ar  
    47    19    20 ar  
    48    19    49 1   
    49    20    21 ar  
    50    20    50 1   
    51    21    22 ar  
    52    21    51 1   
    53    22    23 ar  
    54    22    52 1   
    55    24    53 1   
    56    25    29 1   
    57    28    54 1   
    58    29    55 1   
@<TRIPOS>SUBSTRUCTURE
     1 DQ5         1 TEMP              0 ****  ****    0 ROOT
