@<TRIPOS>MOLECULE
DQ5
   55    58     1     0     0
SMALL
No Charge or Current Charge


@<TRIPOS>ATOM
      1 C02          0.8310     0.3980    -0.3100 c3         1 DQ5       0.196800
      2 C03         -0.3520     0.7460    -1.2330 c3         1 DQ5      -0.083400
      3 C04         -1.7220     0.5850    -0.5390 c3         1 DQ5      -0.074400
      4 C05         -2.9140     0.9320    -1.4600 c3         1 DQ5      -0.119700
      5 C06         -4.2570     0.7760    -0.7610 ca         1 DQ5       0.320300
      6 C07         -4.7470     1.7830     0.0930 ca         1 DQ5      -0.109000
      7 C08         -5.9860     1.6040     0.7310 ca         1 DQ5      -0.173000
      8 C09         -6.6970     0.4160     0.4920 ca         1 DQ5       0.105100
      9 C11         -6.1420    -0.5570    -0.3870 ca         1 DQ5       0.289700
     10 C12         -6.8830    -1.8400    -0.6480 ce         1 DQ5       0.304200
     11 C16          3.3650     0.3790    -0.4360 ca         1 DQ5       0.317000
     12 C17          3.8350    -0.9180    -0.1380 ca         1 DQ5      -0.153300
     13 C18          2.9990    -2.1790    -0.4390 c6         1 DQ5      -0.019100
     14 C19          3.8270    -3.4830    -0.4540 c6         1 DQ5      -0.075400
     15 C20          4.7320    -3.5600     0.7910 c6         1 DQ5      -0.074400
     16 C21          5.7410    -2.3890     0.7910 c6         1 DQ5      -0.132700
     17 C22          5.1130    -1.0340     0.4470 ca         1 DQ5       0.398300
     18 C24          5.4640     1.2640     0.4240 ca         1 DQ5       0.293000
     19 C25          6.2960     2.3630     0.7080 ca         1 DQ5      -0.086000
     20 C26          5.8860     3.6760     0.4260 ca         1 DQ5      -0.102000
     21 C27          4.6270     3.9040    -0.1440 ca         1 DQ5      -0.114000
     22 C28          3.7820     2.8210    -0.4350 ca         1 DQ5      -0.096000
     23 C29          4.1940     1.4920    -0.1580 ca         1 DQ5      -0.121000
     24 N01          2.1040     0.5690    -1.0240 nu         1 DQ5      -0.940200
     25 N13         -6.2800    -2.9380    -1.0140 n2         1 DQ5      -0.293700
     26 N15         -4.9320    -0.3710    -0.9970 nb         1 DQ5      -0.619000
     27 N23          5.9040     0.0230     0.7170 nb         1 DQ5      -0.696000
     28 O10         -7.9050     0.2250     1.1140 oh         1 DQ5      -0.523100
     29 O14         -7.1250    -4.0530    -1.1510 oh         1 DQ5      -0.519000
     30 H1           0.8080     1.0570     0.5700 h1         1 DQ5       0.039700
     31 H2           0.7190    -0.6350     0.0420 h1         1 DQ5       0.039700
     32 H3          -0.2450     1.7800    -1.5840 hc         1 DQ5       0.047700
     33 H4          -0.3190     0.0980    -2.1180 hc         1 DQ5       0.047700
     34 H5          -1.8300    -0.4490    -0.1870 hc         1 DQ5       0.047200
     35 H6          -1.7540     1.2290     0.3500 hc         1 DQ5       0.047200
     36 H7          -2.8050     1.9630    -1.8160 hc         1 DQ5       0.056200
     37 H8          -2.8740     0.2960    -2.3530 hc         1 DQ5       0.056200
     38 H9          -4.1680     2.6880     0.2570 ha         1 DQ5       0.125000
     39 H10         -6.3750     2.3730     1.3960 ha         1 DQ5       0.121000
     40 H11         -7.9500    -1.8420    -0.4120 h4         1 DQ5       0.023800
     41 H12          2.2160    -2.2740     0.3240 hc         1 DQ5       0.051700
     42 H13          2.4820    -2.0780    -1.4030 hc         1 DQ5       0.051700
     43 H14          3.1560    -4.3510    -0.4880 hc         1 DQ5       0.044200
     44 H15          4.4420    -3.5240    -1.3640 hc         1 DQ5       0.044200
     45 H16          4.1150    -3.5210     1.7000 hc         1 DQ5       0.043700
     46 H17          5.2680    -4.5180     0.8140 hc         1 DQ5       0.043700
     47 H18          6.2350    -2.3370     1.7700 hc         1 DQ5       0.062200
     48 H19          6.5330    -2.5990     0.0590 hc         1 DQ5       0.062200
     49 H20          7.2720     2.1920     1.1530 ha         1 DQ5       0.130000
     50 H21          6.5430     4.5140     0.6530 ha         1 DQ5       0.115000
     51 H22          4.3030     4.9200    -0.3600 ha         1 DQ5       0.112000
     52 H23          2.8090     3.0330    -0.8700 ha         1 DQ5       0.103000
     53 H24          2.0980     1.3510    -1.6770 hn         1 DQ5       0.446000
     54 H25         -8.1010     1.0080     1.6730 ho         1 DQ5       0.470000
     55 H26         -6.5300    -4.7930    -1.4290 ho         1 DQ5       0.472000
@<TRIPOS>BOND
     1     1     2 1   
     2     1    24 1   
     3     1    30 1   
     4     1    31 1   
     5     2     3 1   
     6     2    32 1   
     7     2    33 1   
     8     3     4 1   
     9     3    34 1   
    10     3    35 1   
    11     4     5 1   
    12     4    36 1   
    13     4    37 1   
    14     5     6 ar  
    15     5    26 ar  
    16     6     7 ar  
    17     6    38 1   
    18     7     8 ar  
    19     7    39 1   
    20     8     9 ar  
    21     8    28 1   
    22     9    10 1   
    23     9    26 ar  
    24    10    25 2   
    25    10    40 1   
    26    11    12 ar  
    27    11    23 ar  
    28    11    24 1   
    29    12    13 1   
    30    12    17 ar  
    31    13    14 1   
    32    13    41 1   
    33    13    42 1   
    34    14    15 1   
    35    14    43 1   
    36    14    44 1   
    37    15    16 1   
    38    15    45 1   
    39    15    46 1   
    40    16    17 1   
    41    16    47 1   
    42    16    48 1   
    43    17    27 ar  
    44    18    19 ar  
    45    18    23 ar  
    46    18    27 ar  
    47    19    20 ar  
    48    19    49 1   
    49    20    21 ar  
    50    20    50 1   
    51    21    22 ar  
    52    21    51 1   
    53    22    23 ar  
    54    22    52 1   
    55    24    53 1   
    56    25    29 1   
    57    28    54 1   
    58    29    55 1   
@<TRIPOS>SUBSTRUCTURE
     1 DQ5         1 TEMP              0 ****  ****    0 ROOT
