@<TRIPOS>MOLECULE
DQ6
   51    53     1     0     0
SMALL
bcc


@<TRIPOS>ATOM
      1 CAA          5.4600     0.5350     0.1320 c3         1 DQ6      -0.040800
      2 CAV          4.2480    -0.2120     0.6090 ca         1 DQ6      -0.088300
      3 CAR          2.9760     0.1600     0.1810 ca         1 DQ6      -0.125000
      4 CAL          4.3660    -1.2700     1.5060 ca         1 DQ6      -0.139000
      5 CAK          3.2310    -1.9310     1.9520 ca         1 DQ6      -0.134000
      6 CAQ          1.9720    -1.5440     1.5160 ca         1 DQ6      -0.118000
      7 CAY          1.8220    -0.4820     0.6250 ca         1 DQ6      -0.051300
      8 CBA          0.4330    -0.1120     0.0810 c3         1 DQ6       0.094900
      9 CAX          0.2010    -1.0810    -1.0850 ca         1 DQ6      -0.059800
     10 CAO          1.0150    -1.0000    -2.2180 ca         1 DQ6      -0.116750
     11 CAI          0.8790    -1.8880    -3.2720 ca         1 DQ6      -0.135500
     12 CAF         -0.0790    -2.8950    -3.2180 ca         1 DQ6      -0.137000
     13 CAJ         -0.8880    -2.9940    -2.0980 ca         1 DQ6      -0.135500
     14 CAP         -0.7500    -2.0970    -1.0430 ca         1 DQ6      -0.116750
     15 CAT         -0.6330    -0.2600     1.1940 c3         1 DQ6      -0.069400
     16 CB          -2.0260     0.2570     0.8430 c3         1 DQ6      -0.055400
     17 CA          -3.0970    -0.2890     1.7940 c3         1 DQ6       0.011500
     18 C           -4.4070     0.5120     1.5990 c          1 DQ6       0.903600
     19 OXT         -4.4110     1.6790     2.0460 o          1 DQ6      -0.837800
     20 O           -5.3390    -0.0510     0.9900 o          1 DQ6      -0.837800
     21 N           -3.2260    -1.7290     1.6150 n8         1 DQ6      -0.903800
     22 CAW          0.3660     1.3510    -0.3570 ca         1 DQ6      -0.059800
     23 CAM          0.8380     2.3420     0.5050 ca         1 DQ6      -0.116750
     24 CAG          0.7010     3.6870     0.2010 ca         1 DQ6      -0.135500
     25 CAE          0.0760     4.0770    -0.9780 ca         1 DQ6      -0.137000
     26 CAH         -0.4120     3.1040    -1.8360 ca         1 DQ6      -0.135500
     27 CAN         -0.2700     1.7560    -1.5260 ca         1 DQ6      -0.116750
     28 HAA1         5.6730     1.3890     0.7790 hc         1 DQ6       0.034700
     29 HAA2         6.3470    -0.0980     0.1310 hc         1 DQ6       0.034700
     30 HAA3         5.3210     0.9230    -0.8770 hc         1 DQ6       0.034700
     31 HAR          2.8950     0.9820    -0.5210 ha         1 DQ6       0.133000
     32 HAL          5.3450    -1.5800     1.8510 ha         1 DQ6       0.117000
     33 HAK          3.3250    -2.7590     2.6430 ha         1 DQ6       0.122000
     34 HAQ          1.1110    -2.0930     1.8710 ha         1 DQ6       0.143000
     35 HAT1        -0.7210    -1.3030     1.5000 hc         1 DQ6       0.045700
     36 HAT2        -0.2740     0.2790     2.0760 hc         1 DQ6       0.045700
     37 HAO          1.7770    -0.2330    -2.2840 ha         1 DQ6       0.142750
     38 HAP         -1.4050    -2.2080    -0.1870 ha         1 DQ6       0.142750
     39 HAI          1.5240    -1.7960    -4.1360 ha         1 DQ6       0.121500
     40 HAF         -0.1880    -3.5910    -4.0390 ha         1 DQ6       0.118000
     41 HAJ         -1.6380    -3.7720    -2.0380 ha         1 DQ6       0.121500
     42 HB1C        -2.0360     1.3470     0.8770 hc         1 DQ6       0.048200
     43 HB2C        -2.2990    -0.0150    -0.1830 hc         1 DQ6       0.048200
     44 HA          -2.7500    -0.1100     2.8190 h1         1 DQ6       0.034700
     45 HN1         -3.7290    -2.1180     2.4040 hn         1 DQ6       0.329800
     46 HN2         -3.8400    -1.8790     0.8220 hn         1 DQ6       0.329800
     47 HAM          1.3250     2.0610     1.4310 ha         1 DQ6       0.142750
     48 HAN         -0.6750     1.0200    -2.2080 ha         1 DQ6       0.142750
     49 HAG          1.0810     4.4330     0.8880 ha         1 DQ6       0.121500
     50 HAE         -0.0320     5.1260    -1.2210 ha         1 DQ6       0.118000
     51 HAH         -0.9100     3.3900    -2.7530 ha         1 DQ6       0.121500
@<TRIPOS>BOND
     1     1     2 1   
     2     1    28 1   
     3     1    29 1   
     4     1    30 1   
     5     2     3 ar  
     6     2     4 ar  
     7     3     7 ar  
     8     3    31 1   
     9     4     5 ar  
    10     4    32 1   
    11     5     6 ar  
    12     5    33 1   
    13     6     7 ar  
    14     6    34 1   
    15     7     8 1   
    16     8     9 1   
    17     8    15 1   
    18     8    22 1   
    19     9    10 ar  
    20     9    14 ar  
    21    10    11 ar  
    22    10    37 1   
    23    11    12 ar  
    24    11    39 1   
    25    12    13 ar  
    26    12    40 1   
    27    13    14 ar  
    28    13    41 1   
    29    14    38 1   
    30    15    16 1   
    31    15    35 1   
    32    15    36 1   
    33    16    17 1   
    34    16    42 1   
    35    16    43 1   
    36    17    18 1   
    37    17    21 1   
    38    17    44 1   
    39    18    19 1   
    40    18    20 1   
    41    21    45 1   
    42    21    46 1   
    43    22    23 ar  
    44    22    27 ar  
    45    23    24 ar  
    46    23    47 1   
    47    24    25 ar  
    48    24    49 1   
    49    25    26 ar  
    50    25    50 1   
    51    26    27 ar  
    52    26    51 1   
    53    27    48 1   
@<TRIPOS>SUBSTRUCTURE
     1 DQ6         1 TEMP              0 ****  ****    0 ROOT
