@<TRIPOS>MOLECULE
DQ6
   51    53     1     0     0
SMALL
No Charge or Current Charge


@<TRIPOS>ATOM
      1 CAA          5.4720     0.6600     0.1900 c3         1 DQ6      -0.040800
      2 CAV          4.2690    -0.1450     0.6580 ca         1 DQ6      -0.088300
      3 CAR          2.9840     0.1680     0.1780 ca         1 DQ6      -0.107000
      4 CAL          4.4310    -1.2010     1.5690 ca         1 DQ6      -0.121000
      5 CAK          3.3180    -1.9460     1.9800 ca         1 DQ6      -0.116000
      6 CAQ          2.0370    -1.6320     1.4970 ca         1 DQ6      -0.100000
      7 CAY          1.8370    -0.5510     0.6030 ca         1 DQ6      -0.051300
      8 CBA          0.4190    -0.2130     0.0460 c3         1 DQ6       0.094900
      9 CAX          0.2260    -1.1630    -1.1750 ca         1 DQ6      -0.059800
     10 CAO          1.0990    -1.0410    -2.2830 ca         1 DQ6      -0.098750
     11 CAI          0.9840    -1.8820    -3.4020 ca         1 DQ6      -0.117500
     12 CAF         -0.0040    -2.8760    -3.4360 ca         1 DQ6      -0.119000
     13 CAJ         -0.8720    -3.0260    -2.3460 ca         1 DQ6      -0.117500
     14 CAP         -0.7590    -2.1850    -1.2250 ca         1 DQ6      -0.098750
     15 CAT         -0.6660    -0.4040     1.1720 c3         1 DQ6      -0.069400
     16 CB          -2.0920     0.1410     0.8540 c3         1 DQ6      -0.055400
     17 CA          -3.1530    -0.1670     1.9450 c3         1 DQ6       0.011500
     18 C           -4.4280     0.7550     1.7450 c          1 DQ6       0.693000
     19 OXT         -4.6310     1.6480     2.5560 o          1 DQ6      -0.732500
     20 O           -5.2230     0.4660     0.8590 o          1 DQ6      -0.732500
     21 N           -3.4190    -1.6500     2.0420 n8         1 DQ6      -1.014200
     22 CAW          0.3320     1.2850    -0.3700 ca         1 DQ6      -0.059800
     23 CAM          0.7780     2.2880     0.5250 ca         1 DQ6      -0.098750
     24 CAG          0.6800     3.6500     0.1940 ca         1 DQ6      -0.117500
     25 CAE          0.1130     4.0370    -1.0290 ca         1 DQ6      -0.119000
     26 CAH         -0.3650     3.0610    -1.9150 ca         1 DQ6      -0.117500
     27 CAN         -0.2660     1.6970    -1.5860 ca         1 DQ6      -0.098750
     28 HAA1         5.5450     1.6070     0.7380 hc         1 DQ6       0.034700
     29 HAA2         6.4100     0.1120     0.3430 hc         1 DQ6       0.034700
     30 HAA3         5.4000     0.8960    -0.8780 hc         1 DQ6       0.034700
     31 HAR          2.8890     0.9810    -0.5370 ha         1 DQ6       0.115000
     32 HAL          5.4190    -1.4520     1.9490 ha         1 DQ6       0.099000
     33 HAK          3.4480    -2.7750     2.6710 ha         1 DQ6       0.104000
     34 HAQ          1.2080    -2.2530     1.8220 ha         1 DQ6       0.125000
     35 HAT1        -0.7460    -1.4600     1.4450 hc         1 DQ6       0.045700
     36 HAT2        -0.3150     0.1030     2.0790 hc         1 DQ6       0.045700
     37 HAO          1.8720    -0.2770    -2.2870 ha         1 DQ6       0.124750
     38 HAP         -1.4500    -2.3520    -0.4060 ha         1 DQ6       0.124750
     39 HAI          1.6630    -1.7620    -4.2440 ha         1 DQ6       0.103500
     40 HAF         -0.0940    -3.5280    -4.3010 ha         1 DQ6       0.100000
     41 HAJ         -1.6350    -3.8010    -2.3660 ha         1 DQ6       0.103500
     42 HB1C        -2.0370     1.2310     0.7500 hc         1 DQ6       0.048200
     43 HB2C        -2.4420    -0.2380    -0.1130 hc         1 DQ6       0.048200
     44 HA          -2.7150     0.1320     2.9070 h1         1 DQ6       0.034700
     45 HN1         -4.0680    -1.8230     2.8190 hn         1 DQ6       0.385000
     46 HN2         -3.9660    -1.9310     1.2190 hn         1 DQ6       0.385000
     47 HAM          1.2090     2.0100     1.4840 ha         1 DQ6       0.124750
     48 HAN         -0.6750     0.9710    -2.2840 ha         1 DQ6       0.124750
     49 HAG          1.0390     4.4040     0.8900 ha         1 DQ6       0.103500
     50 HAE          0.0340     5.0920    -1.2840 ha         1 DQ6       0.100000
     51 HAH         -0.8210     3.3590    -2.8560 ha         1 DQ6       0.103500
@<TRIPOS>BOND
     1     1     2 1   
     2     1    28 1   
     3     1    29 1   
     4     1    30 1   
     5     2     3 ar  
     6     2     4 ar  
     7     3     7 ar  
     8     3    31 1   
     9     4     5 ar  
    10     4    32 1   
    11     5     6 ar  
    12     5    33 1   
    13     6     7 ar  
    14     6    34 1   
    15     7     8 1   
    16     8     9 1   
    17     8    15 1   
    18     8    22 1   
    19     9    10 ar  
    20     9    14 ar  
    21    10    11 ar  
    22    10    37 1   
    23    11    12 ar  
    24    11    39 1   
    25    12    13 ar  
    26    12    40 1   
    27    13    14 ar  
    28    13    41 1   
    29    14    38 1   
    30    15    16 1   
    31    15    35 1   
    32    15    36 1   
    33    16    17 1   
    34    16    42 1   
    35    16    43 1   
    36    17    18 1   
    37    17    21 1   
    38    17    44 1   
    39    18    19 1   
    40    18    20 1   
    41    21    45 1   
    42    21    46 1   
    43    22    23 ar  
    44    22    27 ar  
    45    23    24 ar  
    46    23    47 1   
    47    24    25 ar  
    48    24    49 1   
    49    25    26 ar  
    50    25    50 1   
    51    26    27 ar  
    52    26    51 1   
    53    27    48 1   
@<TRIPOS>SUBSTRUCTURE
     1 DQ6         1 TEMP              0 ****  ****    0 ROOT
