@<TRIPOS>MOLECULE
DQ7
   51    53     1     0     0
SMALL
abcg2


@<TRIPOS>ATOM
      1 N            3.4950    -1.7240     1.8690 n8         1 DQ7      -0.985200
      2 CA           3.3030    -0.4390     1.2150 c3         1 DQ7       0.019500
      3 CB           2.0990    -0.3800     0.2600 c3         1 DQ7      -0.107400
      4 C            4.5650    -0.0310     0.4270 c          1 DQ7       0.724000
      5 OXT          4.6930     1.1870     0.1850 o          1 DQ7      -0.730500
      6 O            5.3290    -0.9450     0.0550 o          1 DQ7      -0.730500
      7 CAO         -1.7890    -0.9420     2.3000 ca         1 DQ7      -0.100750
      8 CAW         -2.9350    -1.3760     2.9530 ca         1 DQ7      -0.116000
      9 CAP         -4.0710    -1.7080     2.2310 ca         1 DQ7      -0.119000
     10 CAJ         -4.0460    -1.5990     0.8480 ca         1 DQ7      -0.116000
     11 CAE         -2.8980    -1.1660     0.1990 ca         1 DQ7      -0.100750
     12 CAI         -1.7450    -0.8320     0.9100 ca         1 DQ7      -0.057800
     13 CAF          0.0270    -0.1000    -2.3020 ca         1 DQ7      -0.100750
     14 CAL          0.2660    -0.6900    -3.5390 ca         1 DQ7      -0.116000
     15 CAR          0.1380    -2.0600    -3.6990 ca         1 DQ7      -0.119000
     16 CAX         -0.2250    -2.8390    -2.6070 ca         1 DQ7      -0.116000
     17 CAQ         -0.4620    -2.2460    -1.3760 ca         1 DQ7      -0.100750
     18 CAK         -0.3490    -0.8650    -1.2030 ca         1 DQ7      -0.057800
     19 CAN         -1.7460     1.7860    -0.5700 ca         1 DQ7      -0.107000
     20 CAH         -2.0170     3.1470    -0.5980 ca         1 DQ7      -0.093300
     21 CAD         -1.2060     4.0020     0.1490 ca         1 DQ7      -0.117000
     22 CAG         -0.1620     3.4880     0.8970 ca         1 DQ7      -0.109000
     23 CAM          0.0930     2.1210     0.9130 ca         1 DQ7      -0.085000
     24 CAV         -0.6960     1.2440     0.1760 ca         1 DQ7      -0.060300
     25 CAT          0.7820    -0.6940     0.9670 c3         1 DQ7      -0.070400
     26 CAZ         -0.4990    -0.2770     0.2010 c3         1 DQ7       0.095900
     27 HN1          2.6170    -2.0650     2.2400 hn         1 DQ7       0.373500
     28 HN2          3.7940    -2.3940     1.1720 hn         1 DQ7       0.373500
     29 HA           3.1350     0.3160     1.9940 h1         1 DQ7       0.037700
     30 HB1C         2.0650     0.6130    -0.1940 hc         1 DQ7       0.054200
     31 HB2C         2.2550    -1.0910    -0.5570 hc         1 DQ7       0.054200
     32 HAT1         0.7140    -1.7700     1.1470 hc         1 DQ7       0.034700
     33 HAT2         0.7900    -0.2290     1.9560 hc         1 DQ7       0.034700
     34 HAG          0.4670     4.1520     1.4760 ha         1 DQ7       0.113000
     35 HAD         -1.3960     5.0690     0.1420 ha         1 DQ7       0.100000
     36 HAN         -2.3790     1.1270    -1.1540 ha         1 DQ7       0.107000
     37 HAA1        -4.0580     3.8040    -0.7590 hc         1 DQ7       0.033367
     38 HAA2        -2.9490     4.6630    -1.8150 hc         1 DQ7       0.033367
     39 HAA3        -3.4480     3.0180    -2.2070 hc         1 DQ7       0.033367
     40 HAF          0.1500     0.9700    -2.2040 ha         1 DQ7       0.118500
     41 HAL          0.5560    -0.0700    -4.3770 ha         1 DQ7       0.104250
     42 HAR          0.3230    -2.5190    -4.6620 ha         1 DQ7       0.101500
     43 HAX         -0.3240    -3.9120    -2.7120 ha         1 DQ7       0.104250
     44 HAQ         -0.7410    -2.8710    -0.5370 ha         1 DQ7       0.118500
     45 HAE         -2.9110    -1.0950    -0.8810 ha         1 DQ7       0.118500
     46 HAJ         -4.9230    -1.8530     0.2660 ha         1 DQ7       0.104250
     47 HAP         -4.9640    -2.0500     2.7380 ha         1 DQ7       0.101500
     48 HAW         -2.9340    -1.4530     4.0330 ha         1 DQ7       0.104250
     49 HAO         -0.9250    -0.6860     2.8980 ha         1 DQ7       0.118500
     50 CAA         -3.1740     3.6850    -1.3900 c3         1 DQ7      -0.038800
     51 HAM          0.9200     1.7630     1.5110 ha         1 DQ7       0.139000
@<TRIPOS>BOND
     1     1     2 1   
     2     1    27 1   
     3     1    28 1   
     4     2     3 1   
     5     2     4 1   
     6     2    29 1   
     7     3    25 1   
     8     3    30 1   
     9     3    31 1   
    10     4     5 1   
    11     4     6 1   
    12     7     8 ar  
    13     7    12 ar  
    14     7    49 1   
    15     8     9 ar  
    16     8    48 1   
    17     9    10 ar  
    18     9    47 1   
    19    10    11 ar  
    20    10    46 1   
    21    11    12 ar  
    22    11    45 1   
    23    12    26 1   
    24    13    14 ar  
    25    13    18 ar  
    26    13    40 1   
    27    14    15 ar  
    28    14    41 1   
    29    15    16 ar  
    30    15    42 1   
    31    16    17 ar  
    32    16    43 1   
    33    17    18 ar  
    34    17    44 1   
    35    18    26 1   
    36    19    20 ar  
    37    19    24 ar  
    38    19    36 1   
    39    20    21 ar  
    40    20    50 1   
    41    21    22 ar  
    42    21    35 1   
    43    22    23 ar  
    44    22    34 1   
    45    23    24 ar  
    46    23    51 1   
    47    24    26 1   
    48    25    26 1   
    49    25    32 1   
    50    25    33 1   
    51    37    50 1   
    52    38    50 1   
    53    39    50 1   
@<TRIPOS>SUBSTRUCTURE
     1 DQ7         1 TEMP              0 ****  ****    0 ROOT
