@<TRIPOS>MOLECULE
DQ7
   51    53     1     0     0
SMALL
No Charge or Current Charge


@<TRIPOS>ATOM
      1 N            3.5160    -1.9910     1.7140 n8         1 DQ7      -0.985200
      2 CA           3.4190    -0.5680     1.2300 c3         1 DQ7       0.019500
      3 CB           2.1690    -0.3940     0.3260 c3         1 DQ7      -0.107400
      4 C            4.7120     0.0300     0.5260 c          1 DQ7       0.724000
      5 OXT          5.2410     1.0150     1.0250 o          1 DQ7      -0.730500
      6 O            5.1770    -0.5580    -0.4430 o          1 DQ7      -0.730500
      7 CAO         -1.8580    -0.8300     2.3740 ca         1 DQ7      -0.100750
      8 CAW         -3.0130    -1.3150     3.0100 ca         1 DQ7      -0.116000
      9 CAP         -4.0980    -1.7750     2.2510 ca         1 DQ7      -0.119000
     10 CAJ         -4.0310    -1.7350     0.8520 ca         1 DQ7      -0.116000
     11 CAE         -2.8770    -1.2500     0.2140 ca         1 DQ7      -0.100750
     12 CAI         -1.7540    -0.8080     0.9600 ca         1 DQ7      -0.057800
     13 CAF          0.0110    -0.0740    -2.3000 ca         1 DQ7      -0.100750
     14 CAL          0.1870    -0.6660    -3.5630 ca         1 DQ7      -0.116000
     15 CAR          0.0530    -2.0540    -3.7180 ca         1 DQ7      -0.119000
     16 CAX         -0.2430    -2.8530    -2.6040 ca         1 DQ7      -0.116000
     17 CAQ         -0.4190    -2.2630    -1.3410 ca         1 DQ7      -0.100750
     18 CAK         -0.3210    -0.8610    -1.1690 ca         1 DQ7      -0.057800
     19 CAN         -1.7940     1.8040    -0.5600 ca         1 DQ7      -0.107000
     20 CAH         -2.0590     3.1830    -0.6420 ca         1 DQ7      -0.093300
     21 CAD         -1.2350     4.0870     0.0460 ca         1 DQ7      -0.117000
     22 CAG         -0.1580     3.6120     0.8070 ca         1 DQ7      -0.109000
     23 CAM          0.1060     2.2340     0.8830 ca         1 DQ7      -0.085000
     24 CAV         -0.7040     1.2980     0.1900 ca         1 DQ7      -0.060300
     25 CAT          0.8120    -0.6660     1.0440 c3         1 DQ7      -0.070400
     26 CAZ         -0.4830    -0.2440     0.2510 c3         1 DQ7       0.095900
     27 HN1          2.5820    -2.3110     1.9930 hn         1 DQ7       0.373500
     28 HN2          3.7560    -2.5910     0.9160 hn         1 DQ7       0.373500
     29 HA           3.2510     0.0510     2.1220 h1         1 DQ7       0.037700
     30 HB1C         2.1720     0.6290    -0.0670 hc         1 DQ7       0.054200
     31 HB2C         2.2690    -1.0520    -0.5460 hc         1 DQ7       0.054200
     32 HAT1         0.7490    -1.7410     1.2510 hc         1 DQ7       0.034700
     33 HAT2         0.8380    -0.1830     2.0250 hc         1 DQ7       0.034700
     34 HAG          0.4760     4.3140     1.3430 ha         1 DQ7       0.113000
     35 HAD         -1.4300     5.1560    -0.0040 ha         1 DQ7       0.100000
     36 HAN         -2.4410     1.1180    -1.0990 ha         1 DQ7       0.107000
     37 HAA1        -4.1660     3.6330    -0.8870 hc         1 DQ7       0.033367
     38 HAA2        -3.0930     4.7270    -1.7760 hc         1 DQ7       0.033367
     39 HAA3        -3.3700     3.0860    -2.3730 hc         1 DQ7       0.033367
     40 HAF          0.1520     0.9990    -2.2140 ha         1 DQ7       0.118500
     41 HAL          0.4350    -0.0470    -4.4220 ha         1 DQ7       0.104250
     42 HAR          0.1910    -2.5100    -4.6960 ha         1 DQ7       0.101500
     43 HAX         -0.3330    -3.9310    -2.7170 ha         1 DQ7       0.104250
     44 HAQ         -0.6360    -2.9020    -0.4880 ha         1 DQ7       0.118500
     45 HAE         -2.8700    -1.2180    -0.8720 ha         1 DQ7       0.118500
     46 HAJ         -4.8760    -2.0760     0.2590 ha         1 DQ7       0.104250
     47 HAP         -4.9930    -2.1480     2.7450 ha         1 DQ7       0.101500
     48 HAW         -3.0690    -1.3270     4.0970 ha         1 DQ7       0.104250
     49 HAO         -1.0540    -0.4590     3.0010 ha         1 DQ7       0.118500
     50 CAA         -3.2360     3.6860    -1.4640 c3         1 DQ7      -0.038800
     51 HAM          0.9460     1.9210     1.4930 ha         1 DQ7       0.139000
@<TRIPOS>BOND
     1     1     2 1   
     2     1    27 1   
     3     1    28 1   
     4     2     3 1   
     5     2     4 1   
     6     2    29 1   
     7     3    25 1   
     8     3    30 1   
     9     3    31 1   
    10     4     5 1   
    11     4     6 1   
    12     7     8 ar  
    13     7    12 ar  
    14     7    49 1   
    15     8     9 ar  
    16     8    48 1   
    17     9    10 ar  
    18     9    47 1   
    19    10    11 ar  
    20    10    46 1   
    21    11    12 ar  
    22    11    45 1   
    23    12    26 1   
    24    13    14 ar  
    25    13    18 ar  
    26    13    40 1   
    27    14    15 ar  
    28    14    41 1   
    29    15    16 ar  
    30    15    42 1   
    31    16    17 ar  
    32    16    43 1   
    33    17    18 ar  
    34    17    44 1   
    35    18    26 1   
    36    19    20 ar  
    37    19    24 ar  
    38    19    36 1   
    39    20    21 ar  
    40    20    50 1   
    41    21    22 ar  
    42    21    35 1   
    43    22    23 ar  
    44    22    34 1   
    45    23    24 ar  
    46    23    51 1   
    47    24    26 1   
    48    25    26 1   
    49    25    32 1   
    50    25    33 1   
    51    37    50 1   
    52    38    50 1   
    53    39    50 1   
@<TRIPOS>SUBSTRUCTURE
     1 DQ7         1 TEMP              0 ****  ****    0 ROOT
