@<TRIPOS>MOLECULE
DQ8
   49    51     1     0     0
SMALL
abcg2


@<TRIPOS>ATOM
      1 CAA          5.2120    -2.1280    -0.7360 c3         1 DQ8      -0.195100
      2 CAU          4.1130    -1.3580    -0.0570 c          1 DQ8       0.582700
      3 OAC          4.3260    -0.7000     0.9410 o          1 DQ8      -0.522100
      4 CAV          2.7430    -1.4210    -0.6420 ca         1 DQ8      -0.178600
      5 CAQ          1.7200    -0.6900    -0.0300 ca         1 DQ8      -0.050000
      6 CAK          2.4570    -2.1880    -1.7640 ca         1 DQ8      -0.069000
      7 CAJ          1.1610    -2.2250    -2.2610 ca         1 DQ8      -0.130000
      8 CAP          0.1580    -1.5000    -1.6430 ca         1 DQ8      -0.070000
      9 CAY          0.4260    -0.7130    -0.5180 ca         1 DQ8      -0.092300
     10 CAZ         -0.7390     0.0330     0.1360 c3         1 DQ8       0.262900
     11 CAX         -1.7100    -1.0470     0.6210 ca         1 DQ8      -0.079800
     12 CAN         -2.8920    -1.3360    -0.0530 ca         1 DQ8      -0.095250
     13 CAH         -3.7150    -2.3730     0.3680 ca         1 DQ8      -0.114500
     14 CAE         -3.3700    -3.1420     1.4700 ca         1 DQ8      -0.104500
     15 CAI         -2.1820    -2.8740     2.1380 ca         1 DQ8      -0.114500
     16 CAO         -1.3570    -1.8440     1.7120 ca         1 DQ8      -0.095250
     17 SAT         -0.2350     0.9630     1.6540 ss         1 DQ8      -0.441000
     18 CAS          0.6460     2.3880     0.9560 c3         1 DQ8       0.061600
     19 CAR          1.4110     3.0900     2.0690 c3         1 DQ8       0.157800
     20 NAB          2.0410     4.2860     1.5350 n8         1 DQ8      -0.997200
     21 CAW         -1.3820     1.0550    -0.7930 ca         1 DQ8      -0.079800
     22 CAL         -2.5560     1.6980    -0.3900 ca         1 DQ8      -0.095250
     23 CAF         -3.1420     2.6730    -1.1770 ca         1 DQ8      -0.114500
     24 CAD         -2.5580     3.0450    -2.3840 ca         1 DQ8      -0.104500
     25 CAG         -1.3820     2.4340    -2.7820 ca         1 DQ8      -0.114500
     26 CAM         -0.7970     1.4480    -1.9910 ca         1 DQ8      -0.095250
     27 HAA1         6.1550    -1.9750    -0.2170 hc         1 DQ8       0.061033
     28 HAA2         4.9860    -3.1960    -0.7470 hc         1 DQ8       0.061033
     29 HAA3         5.3260    -1.8140    -1.7750 hc         1 DQ8       0.061033
     30 HAQ          1.9510    -0.1120     0.8540 ha         1 DQ8       0.152000
     31 HAK          3.2260    -2.7650    -2.2580 ha         1 DQ8       0.114000
     32 HAJ          0.9320    -2.8260    -3.1300 ha         1 DQ8       0.117000
     33 HAP         -0.8480    -1.5530    -2.0430 ha         1 DQ8       0.122000
     34 HAN         -3.1870    -0.7580    -0.9190 ha         1 DQ8       0.124500
     35 HAO         -0.4230    -1.6730     2.2320 ha         1 DQ8       0.124500
     36 HAH         -4.6310    -2.5780    -0.1710 ha         1 DQ8       0.114250
     37 HAE         -4.0150    -3.9440     1.8020 ha         1 DQ8       0.113500
     38 HAI         -1.8890    -3.4720     2.9910 ha         1 DQ8       0.114250
     39 HAS1         1.3400     2.0600     0.1800 h1         1 DQ8       0.071700
     40 HAS2        -0.0740     3.0700     0.4980 h1         1 DQ8       0.071700
     41 HAR1         0.7350     3.2850     2.9130 h1         1 DQ8       0.041200
     42 HAR2         2.1920     2.4250     2.4440 h1         1 DQ8       0.041200
     43 HAB1         1.3340     4.9900     1.3610 hn         1 DQ8       0.394500
     44 HAB2         2.6570     4.6820     2.2330 hn         1 DQ8       0.394500
     45 HAL         -3.0130     1.4370     0.5560 ha         1 DQ8       0.124500
     46 HAM          0.1290     1.0020    -2.3240 ha         1 DQ8       0.124500
     47 HAF         -4.0560     3.1500    -0.8460 ha         1 DQ8       0.114250
     48 HAD         -3.0140     3.8080    -3.0000 ha         1 DQ8       0.113500
     49 HAG         -0.9060     2.7210    -3.7110 ha         1 DQ8       0.114250
@<TRIPOS>BOND
     1     1     2 1   
     2     1    27 1   
     3     1    28 1   
     4     1    29 1   
     5     2     3 2   
     6     2     4 1   
     7     4     5 ar  
     8     4     6 ar  
     9     5     9 ar  
    10     5    30 1   
    11     6     7 ar  
    12     6    31 1   
    13     7     8 ar  
    14     7    32 1   
    15     8     9 ar  
    16     8    33 1   
    17     9    10 1   
    18    10    11 1   
    19    10    17 1   
    20    10    21 1   
    21    11    12 ar  
    22    11    16 ar  
    23    12    13 ar  
    24    12    34 1   
    25    13    14 ar  
    26    13    36 1   
    27    14    15 ar  
    28    14    37 1   
    29    15    16 ar  
    30    15    38 1   
    31    16    35 1   
    32    17    18 1   
    33    18    19 1   
    34    18    39 1   
    35    18    40 1   
    36    19    20 1   
    37    19    41 1   
    38    19    42 1   
    39    20    43 1   
    40    20    44 1   
    41    21    22 ar  
    42    21    26 ar  
    43    22    23 ar  
    44    22    45 1   
    45    23    24 ar  
    46    23    47 1   
    47    24    25 ar  
    48    24    48 1   
    49    25    26 ar  
    50    25    49 1   
    51    26    46 1   
@<TRIPOS>SUBSTRUCTURE
     1 DQ8         1 TEMP              0 ****  ****    0 ROOT
