@<TRIPOS>MOLECULE
DQ8
   49    51     1     0     0
SMALL
No Charge or Current Charge


@<TRIPOS>ATOM
      1 CAA          5.2870    -2.2610    -0.6270 c3         1 DQ8      -0.195100
      2 CAU          4.1470    -1.5120     0.0670 c          1 DQ8       0.582700
      3 OAC          4.3570    -0.9640     1.1430 o          1 DQ8      -0.522100
      4 CAV          2.7770    -1.4560    -0.5830 ca         1 DQ8      -0.178600
      5 CAQ          1.7230    -0.7680     0.0640 ca         1 DQ8      -0.050000
      6 CAK          2.5190    -2.0830    -1.8230 ca         1 DQ8      -0.069000
      7 CAJ          1.2370    -2.0290    -2.3880 ca         1 DQ8      -0.130000
      8 CAP          0.2030    -1.3440    -1.7360 ca         1 DQ8      -0.070000
      9 CAY          0.4300    -0.6800    -0.5110 ca         1 DQ8      -0.092300
     10 CAZ         -0.7590     0.0380     0.1830 c3         1 DQ8       0.262900
     11 CAX         -1.7190    -1.0890     0.6410 ca         1 DQ8      -0.079800
     12 CAN         -2.8180    -1.4920    -0.1590 ca         1 DQ8      -0.095250
     13 CAH         -3.6640    -2.5380     0.2500 ca         1 DQ8      -0.114500
     14 CAE         -3.4180    -3.2130     1.4540 ca         1 DQ8      -0.104500
     15 CAI         -2.3180    -2.8490     2.2440 ca         1 DQ8      -0.114500
     16 CAO         -1.4710    -1.8030     1.8370 ca         1 DQ8      -0.095250
     17 SAT         -0.2290     1.0270     1.6820 ss         1 DQ8      -0.441000
     18 CAS          0.7240     2.4140     0.8960 c3         1 DQ8       0.061600
     19 CAR          1.5550     3.1760     1.9520 c3         1 DQ8       0.157800
     20 NAB          2.3260     4.2970     1.3660 n8         1 DQ8      -0.997200
     21 CAW         -1.4640     1.0770    -0.7280 ca         1 DQ8      -0.079800
     22 CAL         -2.7160     1.6080    -0.3380 ca         1 DQ8      -0.095250
     23 CAF         -3.3690     2.5750    -1.1210 ca         1 DQ8      -0.114500
     24 CAD         -2.7720     3.0450    -2.3000 ca         1 DQ8      -0.104500
     25 CAG         -1.5160     2.5560    -2.6870 ca         1 DQ8      -0.114500
     26 CAM         -0.8610     1.5880    -1.9050 ca         1 DQ8      -0.095250
     27 HAA1         6.2220    -2.2280    -0.0560 hc         1 DQ8       0.061033
     28 HAA2         4.9730    -3.2930    -0.8190 hc         1 DQ8       0.061033
     29 HAA3         5.4210    -1.8560    -1.6360 hc         1 DQ8       0.061033
     30 HAQ          1.9260    -0.3100     1.0280 ha         1 DQ8       0.152000
     31 HAK          3.2960    -2.6230    -2.3580 ha         1 DQ8       0.114000
     32 HAJ          1.0440    -2.5240    -3.3370 ha         1 DQ8       0.117000
     33 HAP         -0.7830    -1.3230    -2.1940 ha         1 DQ8       0.122000
     34 HAN         -3.0230    -1.0020    -1.1080 ha         1 DQ8       0.124500
     35 HAO         -0.6120    -1.5600     2.4580 ha         1 DQ8       0.124500
     36 HAH         -4.5070    -2.8290    -0.3730 ha         1 DQ8       0.114250
     37 HAE         -4.0720    -4.0240     1.7690 ha         1 DQ8       0.113500
     38 HAI         -2.1150    -3.3820     3.1700 ha         1 DQ8       0.114250
     39 HAS1         1.3960     2.0100     0.1290 h1         1 DQ8       0.071700
     40 HAS2         0.0220     3.1040     0.4110 h1         1 DQ8       0.071700
     41 HAR1         0.8840     3.5730     2.7280 h1         1 DQ8       0.041200
     42 HAR2         2.2570     2.4780     2.4300 h1         1 DQ8       0.041200
     43 HAB1         1.6730     5.0090     1.0170 hn         1 DQ8       0.394500
     44 HAB2         2.8310     4.7840     2.1170 hn         1 DQ8       0.394500
     45 HAL         -3.1880     1.2680     0.5820 ha         1 DQ8       0.124500
     46 HAM          0.1240     1.2550    -2.2200 ha         1 DQ8       0.124500
     47 HAF         -4.3360     2.9630    -0.8090 ha         1 DQ8       0.114250
     48 HAD         -3.2760     3.7960    -2.9050 ha         1 DQ8       0.113500
     49 HAG         -1.0420     2.9330    -3.5910 ha         1 DQ8       0.114250
@<TRIPOS>BOND
     1     1     2 1   
     2     1    27 1   
     3     1    28 1   
     4     1    29 1   
     5     2     3 2   
     6     2     4 1   
     7     4     5 ar  
     8     4     6 ar  
     9     5     9 ar  
    10     5    30 1   
    11     6     7 ar  
    12     6    31 1   
    13     7     8 ar  
    14     7    32 1   
    15     8     9 ar  
    16     8    33 1   
    17     9    10 1   
    18    10    11 1   
    19    10    17 1   
    20    10    21 1   
    21    11    12 ar  
    22    11    16 ar  
    23    12    13 ar  
    24    12    34 1   
    25    13    14 ar  
    26    13    36 1   
    27    14    15 ar  
    28    14    37 1   
    29    15    16 ar  
    30    15    38 1   
    31    16    35 1   
    32    17    18 1   
    33    18    19 1   
    34    18    39 1   
    35    18    40 1   
    36    19    20 1   
    37    19    41 1   
    38    19    42 1   
    39    20    43 1   
    40    20    44 1   
    41    21    22 ar  
    42    21    26 ar  
    43    22    23 ar  
    44    22    45 1   
    45    23    24 ar  
    46    23    47 1   
    47    24    25 ar  
    48    24    48 1   
    49    25    26 ar  
    50    25    49 1   
    51    26    46 1   
@<TRIPOS>SUBSTRUCTURE
     1 DQ8         1 TEMP              0 ****  ****    0 ROOT
