@<TRIPOS>MOLECULE
DQ9
   50    52     1     0     0
SMALL
bcc


@<TRIPOS>ATOM
      1 C4           3.2680     1.5870     0.2540 ca         1 DQ9       0.543600
      2 C5           4.1540     0.5590    -0.0150 cp         1 DQ9      -0.417600
      3 C6           5.2680     0.8990    -0.8200 ca         1 DQ9       0.765200
      4 N1           5.4380     2.1300    -1.2920 nb         1 DQ9      -0.866000
      5 N3           3.4330     2.8230    -0.2220 nb         1 DQ9      -0.811000
      6 OBC         -7.8120     0.1720    -2.6550 o          1 DQ9      -0.817800
      7 CBB         -8.3180    -0.0170    -1.5400 c          1 DQ9       0.939600
      8 OBD         -9.5040    -0.2900    -1.2690 o          1 DQ9      -0.817800
      9 CBA         -7.4150     0.0870    -0.3000 c3         1 DQ9      -0.020600
     10 CAX         -5.1420     0.4580     0.2800 ca         1 DQ9       0.204100
     11 CAY         -3.8390     0.6670    -0.1660 ca         1 DQ9      -0.222000
     12 CAW         -5.3970     0.3480     1.6500 ca         1 DQ9      -0.263000
     13 CAV         -4.3350     0.4520     2.5360 ca         1 DQ9      -0.064000
     14 CAU         -3.0310     0.6590     2.1090 ca         1 DQ9      -0.287000
     15 CAT         -2.7870     0.7670     0.7380 ca         1 DQ9       0.166100
     16 OAS         -1.5680     0.9660     0.2000 os         1 DQ9      -0.327900
     17 CAR         -0.4460     1.0620     1.0600 c3         1 DQ9       0.147400
     18 CAQ          0.7890     1.2560     0.2070 c3         1 DQ9      -0.076400
     19 CAJ          2.0370     1.3710     1.0840 c3         1 DQ9      -0.136700
     20 C2           4.5080     3.0310    -0.9800 ca         1 DQ9       0.942900
     21 NAH          4.6590     4.2670    -1.5070 nv         1 DQ9      -0.947500
     22 NAG          6.1890    -0.0180    -1.1580 nv         1 DQ9      -0.970500
     23 CAI          3.9770    -0.8210     0.4920 cp         1 DQ9      -0.002000
     24 CAO          3.1510    -1.7140    -0.1880 ca         1 DQ9      -0.106000
     25 CAN          2.9890    -3.0030     0.2960 ca         1 DQ9       0.026400
     26 CL           1.9510    -4.1000    -0.5560 cl         1 DQ9      -0.102400
     27 CAM          3.6380    -3.4340     1.4420 ca         1 DQ9      -0.124000
     28 CAL          4.4680    -2.5450     2.1110 ca         1 DQ9      -0.128000
     29 CAK          4.6390    -1.2500     1.6410 ca         1 DQ9      -0.133000
     30 H2          -7.8110     0.8660     0.3630 h1         1 DQ9       0.017200
     31 H3          -7.4600    -0.8570     0.2570 h1         1 DQ9       0.017200
     32 H4          -3.6440     0.7500    -1.2290 ha         1 DQ9       0.159000
     33 H5          -6.3940     0.1870     2.0330 ha         1 DQ9       0.141000
     34 H6          -4.5290     0.3690     3.5980 ha         1 DQ9       0.108000
     35 H7          -2.2390     0.7310     2.8400 ha         1 DQ9       0.116000
     36 H8          -0.5640     1.9040     1.7530 h1         1 DQ9       0.028200
     37 H9          -0.3470     0.1520     1.6640 h1         1 DQ9       0.028200
     38 H10          0.8970     0.4130    -0.4810 hc         1 DQ9       0.063200
     39 H11          0.6860     2.1590    -0.4000 hc         1 DQ9       0.063200
     40 H12          2.1390     0.4750     1.7000 hc         1 DQ9       0.057700
     41 H13          1.9250     2.2180     1.7640 hc         1 DQ9       0.057700
     42 H14          4.1000     5.0140    -1.1340 hn         1 DQ9       0.433800
     43 H15          5.5540     4.5190    -1.8870 hn         1 DQ9       0.433800
     44 H16          6.1940    -0.9330    -0.7430 hn         1 DQ9       0.439800
     45 H17          7.0170     0.2730    -1.6470 hn         1 DQ9       0.439800
     46 H18          2.6450    -1.4030    -1.0920 ha         1 DQ9       0.159000
     47 H19          3.5020    -4.4430     1.8070 ha         1 DQ9       0.145000
     48 H20          4.9800    -2.8680     3.0060 ha         1 DQ9       0.132000
     49 H21          5.2840    -0.5630     2.1730 ha         1 DQ9       0.135000
     50 OAZ         -6.0820     0.3770    -0.6750 os         1 DQ9      -0.268900
@<TRIPOS>BOND
     1     1     2 ar  
     2     1     5 ar  
     3     1    19 1   
     4     2     3 ar  
     5     2    23 1   
     6     3     4 ar  
     7     3    22 1   
     8     4    20 ar  
     9     5    20 ar  
    10     6     7 1   
    11     7     8 1   
    12     7     9 1   
    13     9    30 1   
    14     9    31 1   
    15     9    50 1   
    16    10    11 ar  
    17    10    12 ar  
    18    10    50 1   
    19    11    15 ar  
    20    11    32 1   
    21    12    13 ar  
    22    12    33 1   
    23    13    14 ar  
    24    13    34 1   
    25    14    15 ar  
    26    14    35 1   
    27    15    16 1   
    28    16    17 1   
    29    17    18 1   
    30    17    36 1   
    31    17    37 1   
    32    18    19 1   
    33    18    38 1   
    34    18    39 1   
    35    19    40 1   
    36    19    41 1   
    37    20    21 1   
    38    21    42 1   
    39    21    43 1   
    40    22    44 1   
    41    22    45 1   
    42    23    24 ar  
    43    23    29 ar  
    44    24    25 ar  
    45    24    46 1   
    46    25    26 1   
    47    25    27 ar  
    48    27    28 ar  
    49    27    47 1   
    50    28    29 ar  
    51    28    48 1   
    52    29    49 1   
@<TRIPOS>SUBSTRUCTURE
     1 DQ9         1 TEMP              0 ****  ****    0 ROOT
