@<TRIPOS>MOLECULE
DQ9
   50    52     1     0     0
SMALL
No Charge or Current Charge


@<TRIPOS>ATOM
      1 C4           3.4750     1.7940     0.3020 ca         1 DQ9       0.215300
      2 C5           4.1600     0.6240    -0.1250 cp         1 DQ9      -0.287000
      3 C6           5.2750     0.8440    -0.9620 ca         1 DQ9       0.436900
      4 N1           5.6870     2.0580    -1.3320 nb         1 DQ9      -0.340000
      5 N3           3.8850     3.0220    -0.0750 nb         1 DQ9      -0.285000
      6 OBC         -7.7020    -0.8800    -2.5190 o          1 DQ9      -0.712500
      7 CBB         -8.2200    -0.7680    -1.4140 c          1 DQ9       0.729000
      8 OBD         -9.4130    -0.9640    -1.2160 o          1 DQ9      -0.712500
      9 CBA         -7.3450    -0.3610    -0.1910 c3         1 DQ9       0.002600
     10 CAX         -5.0120     0.2130     0.4110 ca         1 DQ9       0.204100
     11 CAY         -3.6890     0.3900    -0.0180 ca         1 DQ9      -0.204000
     12 CAW         -5.3350     0.4130     1.7700 ca         1 DQ9      -0.245000
     13 CAV         -4.3370     0.7860     2.6840 ca         1 DQ9      -0.046000
     14 CAU         -3.0140     0.9610     2.2470 ca         1 DQ9      -0.269000
     15 CAT         -2.6860     0.7620     0.8890 ca         1 DQ9       0.166100
     16 OAS         -1.4060     0.9190     0.4040 os         1 DQ9      -0.351100
     17 CAR         -0.3080     1.2960     1.2530 c3         1 DQ9       0.170600
     18 CAQ          0.9570     1.3660     0.3780 c3         1 DQ9      -0.076400
     19 CAJ          2.2230     1.7610     1.1740 c3         1 DQ9      -0.136700
     20 C2           4.9620     3.0750    -0.8650 ca         1 DQ9       0.416900
     21 NAH          5.3720     4.3090    -1.2340 nv         1 DQ9      -1.057900
     22 NAG          6.0320    -0.1720    -1.4380 nv         1 DQ9      -1.080900
     23 CAI          3.7200    -0.7460     0.2670 cp         1 DQ9      -0.002000
     24 CAO          3.1760    -1.6320    -0.6920 ca         1 DQ9      -0.088000
     25 CAN          2.7500    -2.9180    -0.3230 ca         1 DQ9       0.118000
     26 Cl           2.0680    -3.9970    -1.5330 cl         1 DQ9      -0.194000
     27 CAM          2.8660    -3.3440     1.0100 ca         1 DQ9      -0.106000
     28 CAL          3.4110    -2.4810     1.9760 ca         1 DQ9      -0.110000
     29 CAK          3.8350    -1.1930     1.6050 ca         1 DQ9      -0.115000
     30 H2          -7.7720     0.5590     0.2300 h1         1 DQ9       0.017200
     31 H3          -7.4360    -1.1550     0.5610 h1         1 DQ9       0.017200
     32 H4          -3.4380     0.2370    -1.0630 ha         1 DQ9       0.141000
     33 H5          -6.3510     0.2840     2.1320 ha         1 DQ9       0.123000
     34 H6          -4.5880     0.9390     3.7320 ha         1 DQ9       0.090000
     35 H7          -2.2610     1.2490     2.9740 ha         1 DQ9       0.098000
     36 H8          -0.4920     2.2760     1.7120 h1         1 DQ9       0.028200
     37 H9          -0.1620     0.5540     2.0490 h1         1 DQ9       0.028200
     38 H10          1.1120     0.3890    -0.0960 hc         1 DQ9       0.063200
     39 H11          0.7970     2.0920    -0.4290 hc         1 DQ9       0.063200
     40 H12          2.3590     1.0620     2.0060 hc         1 DQ9       0.057700
     41 H13          2.0550     2.7420     1.6370 hc         1 DQ9       0.057700
     42 H14          5.0030     5.1090    -0.7280 hn         1 DQ9       0.489000
     43 H15          6.3010     4.4090    -1.6370 hn         1 DQ9       0.489000
     44 H16          5.9330    -1.0810    -0.9940 hn         1 DQ9       0.495000
     45 H17          6.9460     0.0510    -1.8210 hn         1 DQ9       0.495000
     46 H18          3.0780    -1.3110    -1.7260 ha         1 DQ9       0.141000
     47 H19          2.5350    -4.3410     1.2920 ha         1 DQ9       0.127000
     48 H20          3.5040    -2.8090     3.0090 ha         1 DQ9       0.114000
     49 H21          4.2580    -0.5310     2.3570 ha         1 DQ9       0.117000
     50 OAZ         -5.9520    -0.1530    -0.5300 os         1 DQ9      -0.292100
@<TRIPOS>BOND
     1     1     2 ar  
     2     1     5 ar  
     3     1    19 1   
     4     2     3 ar  
     5     2    23 1   
     6     3     4 ar  
     7     3    22 1   
     8     4    20 ar  
     9     5    20 ar  
    10     6     7 1   
    11     7     8 1   
    12     7     9 1   
    13     9    30 1   
    14     9    31 1   
    15     9    50 1   
    16    10    11 ar  
    17    10    12 ar  
    18    10    50 1   
    19    11    15 ar  
    20    11    32 1   
    21    12    13 ar  
    22    12    33 1   
    23    13    14 ar  
    24    13    34 1   
    25    14    15 ar  
    26    14    35 1   
    27    15    16 1   
    28    16    17 1   
    29    17    18 1   
    30    17    36 1   
    31    17    37 1   
    32    18    19 1   
    33    18    38 1   
    34    18    39 1   
    35    19    40 1   
    36    19    41 1   
    37    20    21 1   
    38    21    42 1   
    39    21    43 1   
    40    22    44 1   
    41    22    45 1   
    42    23    24 ar  
    43    23    29 ar  
    44    24    25 ar  
    45    24    46 1   
    46    25    26 1   
    47    25    27 ar  
    48    27    28 ar  
    49    27    47 1   
    50    28    29 ar  
    51    28    48 1   
    52    29    49 1   
@<TRIPOS>SUBSTRUCTURE
     1 DQ9         1 TEMP              0 ****  ****    0 ROOT
