@<TRIPOS>MOLECULE
DQA
   22    22     1     0     0
SMALL
No Charge or Current Charge


@<TRIPOS>ATOM
      1 C1          -0.2010    -0.1680    -1.0440 c6         1 DQA       0.034000
      2 C2           1.1660    -0.0520    -0.2980 c6         1 DQA      -0.069400
      3 C3           1.0670    -0.4130     1.2040 c6         1 DQA       0.173300
      4 O3           2.3480    -0.3010     1.8330 oh         1 DQA      -0.668000
      5 C4           0.0490     0.4780     1.9630 c6         1 DQA       0.017300
      6 O4          -0.1390     0.0050     3.3280 oh         1 DQA      -0.679000
      7 C5          -1.2970     0.6250     1.1890 c          1 DQA       0.568100
      8 C6          -1.2110     0.7860    -0.3360 c6         1 DQA      -0.166400
      9 C            0.0210     0.2210    -2.5750 c          1 DQA       0.703000
     10 O1           0.7050    -0.5610    -3.2230 o          1 DQA      -0.705000
     11 O2          -0.8370     0.9010    -3.1240 o          1 DQA      -0.705000
     12 O5          -2.3710     0.7090     1.7790 o          1 DQA      -0.566100
     13 O6          -0.7000    -1.5250    -0.9300 oh         1 DQA      -0.708000
     14 H21          1.5630     0.9680    -0.4070 hc         1 DQA       0.061700
     15 H22          1.9040    -0.7130    -0.7730 hc         1 DQA       0.061700
     16 H3           0.7200    -1.4550     1.2780 h1         1 DQA       0.047700
     17 HO3          2.1520    -0.3050     2.7970 ho         1 DQA       0.439000
     18 H4           0.4570     1.5000     1.9780 h1         1 DQA       0.066700
     19 HO4         -1.0470     0.2820     3.6000 ho         1 DQA       0.460000
     20 H61         -0.8280     1.8030    -0.4920 hc         1 DQA       0.075200
     21 H62         -2.2180     0.7430    -0.7700 hc         1 DQA       0.075200
     22 HO6         -0.3410    -2.0080    -1.7140 ho         1 DQA       0.482000
@<TRIPOS>BOND
     1     1     2 1   
     2     1     8 1   
     3     1     9 1   
     4     1    13 1   
     5     2     3 1   
     6     2    14 1   
     7     2    15 1   
     8     3     4 1   
     9     3     5 1   
    10     3    16 1   
    11     4    17 1   
    12     5     6 1   
    13     5     7 1   
    14     5    18 1   
    15     6    19 1   
    16     7     8 1   
    17     7    12 2   
    18     8    20 1   
    19     8    21 1   
    20     9    10 1   
    21     9    11 1   
    22    13    22 1   
@<TRIPOS>SUBSTRUCTURE
     1 DQA         1 TEMP              0 ****  ****    0 ROOT
