@<TRIPOS>MOLECULE
DQA
   22    22     1     0     0
SMALL
abcg2


@<TRIPOS>ATOM
      1 C1          -0.1510    -0.2100    -0.9620 c6         1 DQA       0.034000
      2 C2           1.1830     0.0480    -0.2570 c6         1 DQA      -0.069400
      3 C3           1.0950    -0.2550     1.2290 c6         1 DQA       0.173300
      4 O3           2.3450     0.0210     1.8170 oh         1 DQA      -0.668000
      5 C4          -0.0120     0.5860     1.8830 c6         1 DQA       0.017300
      6 O4          -0.1380     0.2640     3.2370 oh         1 DQA      -0.679000
      7 C5          -1.3150     0.4030     1.1310 c          1 DQA       0.568100
      8 C6          -1.2440     0.6750    -0.3370 c6         1 DQA      -0.166400
      9 C           -0.0290     0.1080    -2.4770 c          1 DQA       0.703000
     10 O1          -0.2440    -0.8700    -3.2270 o          1 DQA      -0.705000
     11 O2           0.2650     1.2660    -2.8000 o          1 DQA      -0.705000
     12 O5          -2.3150     0.0540     1.7200 o          1 DQA      -0.566100
     13 O6          -0.5200    -1.5590    -0.8150 oh         1 DQA      -0.708000
     14 H21          1.4800     1.0900    -0.4050 hc         1 DQA       0.061700
     15 H22          1.9610    -0.5750    -0.7070 hc         1 DQA       0.061700
     16 H3           0.8330    -1.3130     1.3660 h1         1 DQA       0.047700
     17 HO3          2.3210    -0.2750     2.7320 ho         1 DQA       0.439000
     18 H4           0.2650     1.6470     1.7660 h1         1 DQA       0.066700
     19 HO4         -1.0680     0.0610     3.4070 ho         1 DQA       0.460000
     20 H61         -0.9850     1.7260    -0.4890 hc         1 DQA       0.075200
     21 H62         -2.2130     0.4900    -0.8030 hc         1 DQA       0.075200
     22 HO6         -0.5550    -1.8630    -1.7440 ho         1 DQA       0.482000
@<TRIPOS>BOND
     1     1     2 1   
     2     1     8 1   
     3     1     9 1   
     4     1    13 1   
     5     2     3 1   
     6     2    14 1   
     7     2    15 1   
     8     3     4 1   
     9     3     5 1   
    10     3    16 1   
    11     4    17 1   
    12     5     6 1   
    13     5     7 1   
    14     5    18 1   
    15     6    19 1   
    16     7     8 1   
    17     7    12 2   
    18     8    20 1   
    19     8    21 1   
    20     9    10 1   
    21     9    11 1   
    22    13    22 1   
@<TRIPOS>SUBSTRUCTURE
     1 DQA         1 TEMP              0 ****  ****    0 ROOT
