@<TRIPOS>MOLECULE
DQB
   49    51     1     0     0
SMALL
abcg2


@<TRIPOS>ATOM
      1 C11         -0.0130     0.8740     0.1820 ca         1 DQB       0.328000
      2 C12         -0.5250     2.1740     0.0160 ca         1 DQB      -0.204500
      3 C13         -1.8750     2.3870    -0.1470 ca         1 DQB      -0.027500
      4 C14         -2.7870     1.3270    -0.1350 ca         1 DQB      -0.191600
      5 C15         -2.2790     0.0400     0.0250 ca         1 DQB      -0.027500
      6 C16         -0.9230    -0.1940     0.1770 ca         1 DQB      -0.204500
      7 C           -4.2290     1.6260    -0.3420 c          1 DQB       0.608700
      8 O           -4.5950     2.6890    -0.8360 o          1 DQB      -0.632100
      9 N           -5.1070     0.6790     0.0290 ns         1 DQB      -0.490900
     10 CA          -6.5370     0.8280    -0.1470 c3         1 DQB       0.089000
     11 CB          -7.2570    -0.4820     0.1280 c3         1 DQB      -0.072400
     12 CG          -8.7560    -0.3460    -0.0750 c3         1 DQB      -0.205400
     13 CD          -9.5850    -1.6100     0.2170 c          1 DQB       0.718000
     14 OE1         -9.0110    -2.5640     0.7790 o          1 DQB      -0.740500
     15 OE2        -10.7850    -1.5670    -0.1240 o          1 DQB      -0.740500
     16 N10          1.3280     0.6930     0.3540 nu         1 DQB      -0.962200
     17 N1           7.5430    -0.0540     1.1580 nc         1 DQB      -0.712100
     18 C2           8.3670    -0.3190     0.1900 cd         1 DQB       0.726800
     19 N3           7.9550    -0.7380    -1.0470 ns         1 DQB      -0.454400
     20 C4           6.6380    -0.9200    -1.4050 c          1 DQB       0.592600
     21 C5           4.3240    -0.7600    -0.5340 ca         1 DQB      -0.017000
     22 C6           3.4320    -0.4900     0.4790 ca         1 DQB      -0.146300
     23 C7           3.9390    -0.0730     1.7230 ca         1 DQB      -0.044000
     24 C8           5.2890     0.0640     1.9380 ca         1 DQB      -0.131000
     25 C4A          5.7010    -0.6280    -0.3310 ca         1 DQB      -0.240600
     26 C8A          6.2100    -0.2090     0.9100 ca         1 DQB       0.237400
     27 C9           1.9500    -0.6110     0.2680 c3         1 DQB       0.269100
     28 H12          0.1560     3.0170     0.0120 ha         1 DQB       0.108500
     29 H13         -2.2340     3.3990    -0.2840 ha         1 DQB       0.124000
     30 H15         -2.9330    -0.8230    -0.0010 ha         1 DQB       0.124000
     31 H16         -0.5800    -1.2150     0.2790 ha         1 DQB       0.108500
     32 HN          -4.7900    -0.1050     0.5750 hn         1 DQB       0.311500
     33 HA1         -6.9260     1.6110     0.5130 h1         1 DQB       0.041700
     34 HA2         -6.7370     1.1560    -1.1700 h1         1 DQB       0.041700
     35 HB1         -6.8580    -1.2590    -0.5300 hc         1 DQB       0.042700
     36 HB2         -7.0520    -0.8070     1.1520 hc         1 DQB       0.042700
     37 HG1         -9.1400     0.4600     0.5620 hc         1 DQB       0.020200
     38 HG2         -8.9630    -0.0200    -1.0990 hc         1 DQB       0.020200
     39 H10          1.9090     1.4670     0.0700 hn         1 DQB       0.473000
     40 HN3          8.6500    -0.9390    -1.7560 hn         1 DQB       0.321500
     41 H5           3.9620    -1.0800    -1.5040 ha         1 DQB       0.134000
     42 H7           3.2500     0.1400     2.5310 ha         1 DQB       0.127000
     43 H8           5.6650     0.3840     2.9010 ha         1 DQB       0.131000
     44 HA21        10.0140     0.2140     1.2200 hn         1 DQB       0.498500
     45 HA22        10.3270    -0.2210    -0.4040 hn         1 DQB       0.498500
     46 H91          1.7510    -1.0920    -0.6970 h1         1 DQB       0.047700
     47 H92          1.5230    -1.2600     1.0370 h1         1 DQB       0.047700
     48 OA4          6.3410    -1.2920    -2.5260 o          1 DQB      -0.538000
     49 NA2          9.6920    -0.2250     0.3750 nv         1 DQB      -1.052200
@<TRIPOS>BOND
     1     1     2 ar  
     2     1     6 ar  
     3     1    16 1   
     4     2     3 ar  
     5     2    28 1   
     6     3     4 ar  
     7     3    29 1   
     8     4     5 ar  
     9     4     7 1   
    10     5     6 ar  
    11     5    30 1   
    12     6    31 1   
    13     7     8 2   
    14     7     9 1   
    15     9    10 1   
    16     9    32 1   
    17    10    11 1   
    18    10    33 1   
    19    10    34 1   
    20    11    12 1   
    21    11    35 1   
    22    11    36 1   
    23    12    13 1   
    24    12    37 1   
    25    12    38 1   
    26    13    14 1   
    27    13    15 1   
    28    16    27 1   
    29    16    39 1   
    30    17    18 2   
    31    17    26 1   
    32    18    19 1   
    33    18    49 1   
    34    19    20 1   
    35    19    40 1   
    36    20    25 1   
    37    20    48 2   
    38    21    22 ar  
    39    21    25 ar  
    40    21    41 1   
    41    22    23 ar  
    42    22    27 1   
    43    23    24 ar  
    44    23    42 1   
    45    24    26 ar  
    46    24    43 1   
    47    25    26 ar  
    48    27    46 1   
    49    27    47 1   
    50    44    49 1   
    51    45    49 1   
@<TRIPOS>SUBSTRUCTURE
     1 DQB         1 TEMP              0 ****  ****    0 ROOT
