@<TRIPOS>MOLECULE
DQB
   49    51     1     0     0
SMALL
No Charge or Current Charge


@<TRIPOS>ATOM
      1 C11         -0.0090     0.7770     0.2340 ca         1 DQB       0.328000
      2 C12         -0.4130     2.0880    -0.0440 ca         1 DQB      -0.204500
      3 C13         -1.7760     2.3970    -0.1970 ca         1 DQB      -0.027500
      4 C14         -2.7610     1.3920    -0.0740 ca         1 DQB      -0.191600
      5 C15         -2.3430     0.0680     0.2070 ca         1 DQB      -0.027500
      6 C16         -0.9770    -0.2310     0.3580 ca         1 DQB      -0.204500
      7 C           -4.2200     1.7590    -0.2450 c          1 DQB       0.608700
      8 O           -4.5790     2.9040    -0.4880 o          1 DQB      -0.632100
      9 N           -5.1370     0.7400    -0.1150 ns         1 DQB      -0.490900
     10 CA          -6.5850     0.9070    -0.2470 c3         1 DQB       0.089000
     11 CB          -7.3350    -0.4230    -0.0410 c3         1 DQB      -0.072400
     12 CG          -8.8710    -0.2790    -0.1750 c3         1 DQB      -0.205400
     13 CD          -9.5570    -1.6400     0.0420 c          1 DQB       0.718000
     14 OE1         -9.8630    -1.9560     1.1810 o          1 DQB      -0.740500
     15 OE2         -9.7180    -2.3650    -0.9280 o          1 DQB      -0.740500
     16 N10          1.3500     0.5090     0.3790 nu         1 DQB      -0.962200
     17 N1           7.6930    -0.0870     1.0370 nc         1 DQB      -0.712100
     18 C2           8.3250    -0.2800    -0.0930 cd         1 DQB       0.726800
     19 N3           7.8320    -0.6110    -1.2930 ns         1 DQB      -0.454400
     20 C4           6.5180    -0.8070    -1.5190 c          1 DQB       0.592600
     21 C5           4.2740    -0.7790    -0.3750 ca         1 DQB      -0.017000
     22 C6           3.4870    -0.5960     0.7760 ca         1 DQB      -0.146300
     23 C7           4.1110    -0.2480     1.9860 ca         1 DQB      -0.044000
     24 C8           5.5060    -0.0870     2.0400 ca         1 DQB      -0.131000
     25 C4A          5.6740    -0.6160    -0.3140 ca         1 DQB      -0.240600
     26 C8A          6.3060    -0.2680     0.8980 ca         1 DQB       0.237400
     27 C9           1.9790    -0.7740     0.7120 c3         1 DQB       0.269100
     28 H12          0.3270     2.8770    -0.1420 ha         1 DQB       0.108500
     29 H13         -2.0620     3.4250    -0.4120 ha         1 DQB       0.124000
     30 H15         -3.0590    -0.7430     0.3110 ha         1 DQB       0.124000
     31 H16         -0.6830    -1.2530     0.5720 ha         1 DQB       0.108500
     32 HN          -4.7750    -0.1830     0.0860 hn         1 DQB       0.311500
     33 HA1         -6.9240     1.6400     0.4970 h1         1 DQB       0.041700
     34 HA2         -6.8040     1.3020    -1.2470 h1         1 DQB       0.041700
     35 HB1         -6.9760    -1.1550    -0.7750 hc         1 DQB       0.042700
     36 HB2         -7.0950    -0.8210     0.9530 hc         1 DQB       0.042700
     37 HG1         -9.1750     0.4310     0.6050 hc         1 DQB       0.020200
     38 HG2         -9.0510     0.0820    -1.1950 hc         1 DQB       0.020200
     39 H10          1.9770     1.3060     0.2720 hn         1 DQB       0.473000
     40 HN3          8.4490    -0.7500    -2.0750 hn         1 DQB       0.321500
     41 H5           3.7940    -1.0460    -1.3160 ha         1 DQB       0.134000
     42 H7           3.5170    -0.1000     2.8860 ha         1 DQB       0.127000
     43 H8           5.9750     0.1820     2.9830 ha         1 DQB       0.131000
     44 HA21         9.9280     0.3120     0.8500 hn         1 DQB       0.498500
     45 HA22        10.1040     0.2280    -0.8470 hn         1 DQB       0.498500
     46 H91          1.7290    -1.5290    -0.0470 h1         1 DQB       0.047700
     47 H92          1.6100    -1.1380     1.6810 h1         1 DQB       0.047700
     48 OA4          6.0880    -1.1160    -2.6190 o          1 DQB      -0.538000
     49 NA2          9.6330    -0.1150    -0.0190 nv         1 DQB      -1.052200
@<TRIPOS>BOND
     1     1     2 ar  
     2     1     6 ar  
     3     1    16 1   
     4     2     3 ar  
     5     2    28 1   
     6     3     4 ar  
     7     3    29 1   
     8     4     5 ar  
     9     4     7 1   
    10     5     6 ar  
    11     5    30 1   
    12     6    31 1   
    13     7     8 2   
    14     7     9 1   
    15     9    10 1   
    16     9    32 1   
    17    10    11 1   
    18    10    33 1   
    19    10    34 1   
    20    11    12 1   
    21    11    35 1   
    22    11    36 1   
    23    12    13 1   
    24    12    37 1   
    25    12    38 1   
    26    13    14 1   
    27    13    15 1   
    28    16    27 1   
    29    16    39 1   
    30    17    18 2   
    31    17    26 1   
    32    18    19 1   
    33    18    49 1   
    34    19    20 1   
    35    19    40 1   
    36    20    25 1   
    37    20    48 2   
    38    21    22 ar  
    39    21    25 ar  
    40    21    41 1   
    41    22    23 ar  
    42    22    27 1   
    43    23    24 ar  
    44    23    42 1   
    45    24    26 ar  
    46    24    43 1   
    47    25    26 ar  
    48    27    46 1   
    49    27    47 1   
    50    44    49 1   
    51    45    49 1   
@<TRIPOS>SUBSTRUCTURE
     1 DQB         1 TEMP              0 ****  ****    0 ROOT
