@<TRIPOS>MOLECULE
DQD
   61    64     1     0     0
SMALL
No Charge or Current Charge


@<TRIPOS>ATOM
      1 FBE         -5.6150    -4.2370    -0.1490 f          1 DQD      -0.113333
      2 CBD         -4.3320    -3.8650     0.0670 c3         1 DQD       0.355300
      3 FBF         -4.0480    -4.1620     1.3550 f          1 DQD      -0.113333
      4 FBG         -3.5630    -4.6700    -0.7030 f          1 DQD      -0.113333
      5 CBB         -4.0830    -2.3810    -0.2300 ca         1 DQD      -0.172300
      6 CBC         -2.7610    -1.9130    -0.4060 ca         1 DQD      -0.071000
      7 CBA         -5.1520    -1.4630    -0.3150 ca         1 DQD      -0.086000
      8 CAZ         -4.9030    -0.1090    -0.5870 ca         1 DQD      -0.092000
      9 CAY         -3.5870     0.3440    -0.7690 ca         1 DQD      -0.141000
     10 CAX         -2.5050    -0.5490    -0.6730 ca         1 DQD      -0.017000
     11 NAW         -1.2010    -0.0190    -0.8680 ns         1 DQD      -0.166000
     12 CAU          0.0680    -0.5370    -0.6400 c          1 DQD       0.657100
     13 OAV          0.2510    -1.6420    -0.1480 o          1 DQD      -0.609100
     14 NAJ          1.1510     0.3060    -1.0090 n          1 DQD      -0.418800
     15 CAG          2.5780    -0.0650    -0.7690 c6         1 DQD       0.132700
     16 CAH          3.0720    -1.2090    -1.6800 c6         1 DQD      -0.091400
     17 CAI          4.5810    -1.4590    -1.4560 c6         1 DQD       0.171300
     18 CAF          2.9410    -0.3260     0.7120 c6         1 DQD      -0.091400
     19 CAE          4.4560    -0.6010     0.8520 c6         1 DQD       0.171300
     20 NAD          4.8970    -1.7290    -0.0240 n3         1 DQD      -0.717600
     21 CAC          6.3230    -2.0980     0.1560 c3         1 DQD       0.170800
     22 CAB          6.6860    -2.6390     1.5590 c3         1 DQD      -0.078400
     23 CAA          8.1290    -3.1740     1.6400 c3         1 DQD      -0.090100
     24 CAK          0.9010     1.5800    -1.7380 c3         1 DQD       0.161300
     25 CAL          0.2450     2.6660    -0.8900 ca         1 DQD      -0.122300
     26 CAT         -0.9790     3.2450    -1.3000 ca         1 DQD      -0.082000
     27 CAS         -1.5590     4.2220    -0.4810 ca         1 DQD       0.053100
     28 OAR         -2.7230     4.8750    -0.7270 os         1 DQD      -0.340100
     29 CAQ         -2.8820     5.7140     0.4720 c5         1 DQD       0.372600
     30 OAP         -1.6830     5.5920     1.3160 os         1 DQD      -0.342100
     31 CAO         -0.9680     4.6290     0.6810 ca         1 DQD       0.061100
     32 CAN          0.2510     4.0930     1.1120 ca         1 DQD      -0.100000
     33 CAM          0.8580     3.1000     0.3130 ca         1 DQD      -0.099000
     34 H1          -1.9450    -2.6260    -0.3420 ha         1 DQD       0.154000
     35 H2          -6.1800    -1.7910    -0.1720 ha         1 DQD       0.133000
     36 H3          -5.7320     0.5920    -0.6550 ha         1 DQD       0.120000
     37 H4          -3.4100     1.3960    -0.9770 ha         1 DQD       0.112000
     38 H5          -1.1990     0.9240    -1.2310 hn         1 DQD       0.145000
     39 H6           3.1820     0.8100    -1.0500 h1         1 DQD       0.038700
     40 H7           2.5160    -2.1320    -1.4710 hc         1 DQD       0.065200
     41 H8           2.8900    -0.9580    -2.7330 hc         1 DQD       0.065200
     42 H9           4.8880    -2.3100    -2.0800 h1         1 DQD       0.028950
     43 H10          5.1450    -0.5820    -1.8080 h1         1 DQD       0.028950
     44 H11          2.6630     0.5350     1.3310 hc         1 DQD       0.065200
     45 H12          2.3920    -1.1890     1.1060 hc         1 DQD       0.065200
     46 H13          5.0130     0.3140     0.6010 h1         1 DQD       0.028950
     47 H14          4.6580    -0.8240     1.9080 h1         1 DQD       0.028950
     48 H16          6.5810    -2.8800    -0.5720 h1         1 DQD       0.026700
     49 H17          6.9650    -1.2340    -0.0650 h1         1 DQD       0.026700
     50 H18          6.5680    -1.8490     2.3080 hc         1 DQD       0.047700
     51 H19          5.9910    -3.4460     1.8240 hc         1 DQD       0.047700
     52 H20          8.2780    -3.9980     0.9320 hc         1 DQD       0.032033
     53 H21          8.8500    -2.3810     1.4050 hc         1 DQD       0.032033
     54 H22          8.3440    -3.5440     2.6490 hc         1 DQD       0.032033
     55 H23          1.8440     1.9770    -2.1340 h1         1 DQD       0.052700
     56 H24          0.2740     1.3640    -2.6130 h1         1 DQD       0.052700
     57 H25         -1.4690     2.9460    -2.2240 ha         1 DQD       0.143000
     58 H26         -3.0190     6.7610     0.1740 h2         1 DQD       0.067700
     59 H27          0.7130     4.4320     2.0350 ha         1 DQD       0.136000
     60 H28          1.8060     2.6700     0.6280 ha         1 DQD       0.117000
     61 H15         -3.7550     5.3680     1.0370 h2         1 DQD       0.067700
@<TRIPOS>BOND
     1     1     2 1   
     2     2     3 1   
     3     2     4 1   
     4     2     5 1   
     5     5     6 ar  
     6     5     7 ar  
     7     6    10 ar  
     8     6    34 1   
     9     7     8 ar  
    10     7    35 1   
    11     8     9 ar  
    12     8    36 1   
    13     9    10 ar  
    14     9    37 1   
    15    10    11 1   
    16    11    12 1   
    17    11    38 1   
    18    12    13 2   
    19    12    14 1   
    20    14    15 1   
    21    14    24 1   
    22    15    16 1   
    23    15    18 1   
    24    15    39 1   
    25    16    17 1   
    26    16    40 1   
    27    16    41 1   
    28    17    20 1   
    29    17    42 1   
    30    17    43 1   
    31    18    19 1   
    32    18    44 1   
    33    18    45 1   
    34    19    20 1   
    35    19    46 1   
    36    19    47 1   
    37    20    21 1   
    38    21    22 1   
    39    21    48 1   
    40    21    49 1   
    41    22    23 1   
    42    22    50 1   
    43    22    51 1   
    44    23    52 1   
    45    23    53 1   
    46    23    54 1   
    47    24    25 1   
    48    24    55 1   
    49    24    56 1   
    50    25    26 ar  
    51    25    33 ar  
    52    26    27 ar  
    53    26    57 1   
    54    27    28 1   
    55    27    31 ar  
    56    28    29 1   
    57    29    30 1   
    58    29    58 1   
    59    29    61 1   
    60    30    31 1   
    61    31    32 ar  
    62    32    33 ar  
    63    32    59 1   
    64    33    60 1   
@<TRIPOS>SUBSTRUCTURE
     1 DQD         1 TEMP              0 ****  ****    0 ROOT
