@<TRIPOS>MOLECULE
DQD
   61    64     1     0     0
SMALL
abcg2


@<TRIPOS>ATOM
      1 FBE         -5.4890    -3.8890     0.9680 f          1 DQD      -0.113333
      2 CBD         -4.2910    -3.2980     0.9230 c3         1 DQD       0.355300
      3 FBF         -4.1900    -2.5370     2.0220 f          1 DQD      -0.113333
      4 FBG         -3.3730    -4.2690     1.0510 f          1 DQD      -0.113333
      5 CBB         -4.0830    -2.5030    -0.3280 ca         1 DQD      -0.172300
      6 CBC         -2.9140    -1.7560    -0.4300 ca         1 DQD      -0.071000
      7 CBA         -5.0210    -2.5180    -1.3490 ca         1 DQD      -0.086000
      8 CAZ         -4.7770    -1.7640    -2.4890 ca         1 DQD      -0.092000
      9 CAY         -3.6120    -1.0300    -2.6110 ca         1 DQD      -0.141000
     10 CAX         -2.6630    -1.0210    -1.5860 ca         1 DQD      -0.017000
     11 NAW         -1.5340    -0.2180    -1.7500 ns         1 DQD      -0.166000
     12 CAU         -0.2660    -0.5440    -1.3030 c          1 DQD       0.657100
     13 OAV         -0.0670    -1.5800    -0.6850 o          1 DQD      -0.609100
     14 NAJ          0.7210     0.3440    -1.5910 n          1 DQD      -0.418800
     15 CAG          2.0980     0.0720    -1.1610 c6         1 DQD       0.132700
     16 CAH          2.7180    -1.1610    -1.8080 c6         1 DQD      -0.091400
     17 CAI          4.1790    -1.2740    -1.3960 c6         1 DQD       0.171300
     18 CAF          2.3070     0.0500     0.3510 c6         1 DQD      -0.091400
     19 CAE          3.7880    -0.1300     0.6550 c6         1 DQD       0.171300
     20 NAD          4.3100    -1.3420     0.0480 n3         1 DQD      -0.717600
     21 CAC          5.6750    -1.6220     0.4560 c3         1 DQD       0.170800
     22 CAB          5.7920    -2.1120     1.8940 c3         1 DQD      -0.078400
     23 CAA          7.2240    -2.4840     2.2490 c3         1 DQD      -0.090100
     24 CAK          0.5000     1.6920    -2.1000 c3         1 DQD       0.161300
     25 CAL          0.5130     2.7310    -1.0070 ca         1 DQD      -0.122300
     26 CAT         -0.4910     2.7190    -0.0230 ca         1 DQD      -0.082000
     27 CAS         -0.4020     3.6530     0.9750 ca         1 DQD       0.053100
     28 OAR         -1.2470     3.8610     2.0130 os         1 DQD      -0.340100
     29 CAQ         -0.6130     4.8150     2.8550 c5         1 DQD       0.372600
     30 OAP          0.4520     5.3860     2.1060 os         1 DQD      -0.342100
     31 CAO          0.6300     4.5810     1.0300 ca         1 DQD       0.061100
     32 CAN          1.6170     4.6140     0.0810 ca         1 DQD      -0.100000
     33 CAM          1.5380     3.6620    -0.9450 ca         1 DQD      -0.099000
     34 H1          -2.2090    -1.7370     0.3870 ha         1 DQD       0.154000
     35 H2          -5.9310    -3.0970    -1.2770 ha         1 DQD       0.133000
     36 H3          -5.4980    -1.7580    -3.2940 ha         1 DQD       0.120000
     37 H4          -3.4310    -0.4560    -3.5120 ha         1 DQD       0.112000
     38 H5          -1.6190     0.4470    -2.5000 hn         1 DQD       0.145000
     39 H6           2.6730     0.9270    -1.5320 h1         1 DQD       0.038700
     40 H7           2.1930    -2.0660    -1.5040 hc         1 DQD       0.065200
     41 H8           2.6500    -1.0840    -2.8960 hc         1 DQD       0.065200
     42 H9           4.6070    -2.1790    -1.8320 h1         1 DQD       0.028950
     43 H10          4.7470    -0.4210    -1.8130 h1         1 DQD       0.028950
     44 H11          1.9630     0.9880     0.7920 hc         1 DQD       0.065200
     45 H12          1.7400    -0.7620     0.8070 hc         1 DQD       0.065200
     46 H13          4.3440     0.7590     0.3000 h1         1 DQD       0.028950
     47 H14          3.9270    -0.1720     1.7360 h1         1 DQD       0.028950
     48 H16          6.0680    -2.4030    -0.2020 h1         1 DQD       0.026700
     49 H17          6.3320    -0.7450     0.3140 h1         1 DQD       0.026700
     50 H18          5.4370    -1.3490     2.5910 hc         1 DQD       0.047700
     51 H19          5.1350    -2.9770     2.0230 hc         1 DQD       0.047700
     52 H20          7.6010    -3.2760     1.5990 hc         1 DQD       0.032033
     53 H21          7.8930    -1.6280     2.1460 hc         1 DQD       0.032033
     54 H22          7.2980    -2.8380     3.2780 hc         1 DQD       0.032033
     55 H23          1.2860     1.9110    -2.8250 h1         1 DQD       0.052700
     56 H24         -0.4260     1.7540    -2.6690 h1         1 DQD       0.052700
     57 H25         -1.3040     2.0030    -0.0450 ha         1 DQD       0.143000
     58 H26         -1.3240     5.5910     3.1360 h2         1 DQD       0.067700
     59 H27          2.4220     5.3350     0.1170 ha         1 DQD       0.136000
     60 H28          2.3080     3.6540    -1.7060 ha         1 DQD       0.117000
     61 H15         -0.2150     4.3160     3.7460 h2         1 DQD       0.067700
@<TRIPOS>BOND
     1     1     2 1   
     2     2     3 1   
     3     2     4 1   
     4     2     5 1   
     5     5     6 ar  
     6     5     7 ar  
     7     6    10 ar  
     8     6    34 1   
     9     7     8 ar  
    10     7    35 1   
    11     8     9 ar  
    12     8    36 1   
    13     9    10 ar  
    14     9    37 1   
    15    10    11 1   
    16    11    12 1   
    17    11    38 1   
    18    12    13 2   
    19    12    14 1   
    20    14    15 1   
    21    14    24 1   
    22    15    16 1   
    23    15    18 1   
    24    15    39 1   
    25    16    17 1   
    26    16    40 1   
    27    16    41 1   
    28    17    20 1   
    29    17    42 1   
    30    17    43 1   
    31    18    19 1   
    32    18    44 1   
    33    18    45 1   
    34    19    20 1   
    35    19    46 1   
    36    19    47 1   
    37    20    21 1   
    38    21    22 1   
    39    21    48 1   
    40    21    49 1   
    41    22    23 1   
    42    22    50 1   
    43    22    51 1   
    44    23    52 1   
    45    23    53 1   
    46    23    54 1   
    47    24    25 1   
    48    24    55 1   
    49    24    56 1   
    50    25    26 ar  
    51    25    33 ar  
    52    26    27 ar  
    53    26    57 1   
    54    27    28 1   
    55    27    31 ar  
    56    28    29 1   
    57    29    30 1   
    58    29    58 1   
    59    29    61 1   
    60    30    31 1   
    61    31    32 ar  
    62    32    33 ar  
    63    32    59 1   
    64    33    60 1   
@<TRIPOS>SUBSTRUCTURE
     1 DQD         1 TEMP              0 ****  ****    0 ROOT
