@<TRIPOS>MOLECULE
DQE
   34    36     1     0     0
SMALL
abcg2


@<TRIPOS>ATOM
      1 C01         22.2620    34.0390    74.4590 c3         1 DQE      -0.123100
      2 C02         23.0480    33.8640    75.7400 c3         1 DQE       0.170600
      3 C04         22.8290    35.9310    76.8940 c          1 DQE       0.629300
      4 C06         22.1780    36.5900    78.0290 cc         1 DQE      -0.139300
      5 C07         22.3030    37.9040    78.3930 cd         1 DQE      -0.148200
      6 C08         21.5000    38.0860    79.5510 ca         1 DQE      -0.128800
      7 C09         21.2240    39.1840    80.3720 ca         1 DQE      -0.024000
      8 C10         20.3680    39.0290    81.4480 cp         1 DQE      -0.084000
      9 C11         20.0540    40.1730    82.3230 cp         1 DQE       0.017000
     10 C12         18.7850    40.3460    82.8760 ca         1 DQE      -0.161000
     11 C13         18.5410    41.4400    83.6900 ca         1 DQE       0.334400
     12 C15         20.6630    42.1960    83.4630 ca         1 DQE       0.334400
     13 C16         21.0100    41.1380    82.6400 ca         1 DQE      -0.161000
     14 C17         19.7860    37.7640    81.7060 ca         1 DQE      -0.063000
     15 C18         20.0440    36.6640    80.9220 ca         1 DQE      -0.134000
     16 C19         20.9060    36.8350    79.8350 ca         1 DQE      -0.025200
     17 N14         19.4530    42.3580    83.9880 nb         1 DQE      -0.665000
     18 N20         21.3340    35.9500    78.9020 na         1 DQE      -0.191700
     19 O03         22.5060    34.6500    76.8150 os         1 DQE      -0.461100
     20 O05         23.5730    36.5080    76.1370 o          1 DQE      -0.474000
     21 H013        22.6620    33.3620    73.7040 hc         1 DQE       0.050033
     22 H012        21.2100    33.7940    74.6030 hc         1 DQE       0.050033
     23 H011        22.3360    35.0530    74.0700 hc         1 DQE       0.050033
     24 H021        22.9850    32.8370    76.0950 h1         1 DQE       0.061200
     25 H022        24.1010    34.1080    75.5960 h1         1 DQE       0.061200
     26 H071        22.9030    38.6470    77.8910 ha         1 DQE       0.222000
     27 H091        21.6630    40.1480    80.1470 ha         1 DQE       0.122000
     28 H121        17.9810    39.6530    82.6650 ha         1 DQE       0.123500
     29 H131        17.5530    41.5810    84.1170 h4         1 DQE       0.017600
     30 H151        21.4050    42.9460    83.7160 h4         1 DQE       0.017600
     31 H161        22.0240    41.0620    82.2710 ha         1 DQE       0.123500
     32 H171        19.1340    37.6480    82.5610 ha         1 DQE       0.116000
     33 H181        19.5990    35.7040    81.1440 ha         1 DQE       0.120000
     34 H201        21.0690    34.9790    78.8530 hn         1 DQE       0.366000
@<TRIPOS>BOND
     1     1     2 1   
     2     1    21 1   
     3     1    22 1   
     4     1    23 1   
     5     2    19 1   
     6     2    24 1   
     7     2    25 1   
     8     3     4 1   
     9     3    19 1   
    10     3    20 2   
    11     4     5 2   
    12     4    18 1   
    13     5     6 1   
    14     5    26 1   
    15     6     7 ar  
    16     6    16 ar  
    17     7     8 ar  
    18     7    27 1   
    19     8     9 1   
    20     8    14 ar  
    21     9    10 ar  
    22     9    13 ar  
    23    10    11 ar  
    24    10    28 1   
    25    11    17 ar  
    26    11    29 1   
    27    12    13 ar  
    28    12    17 ar  
    29    12    30 1   
    30    13    31 1   
    31    14    15 ar  
    32    14    32 1   
    33    15    16 ar  
    34    15    33 1   
    35    16    18 1   
    36    18    34 1   
@<TRIPOS>SUBSTRUCTURE
     1 DQE         1 TEMP              0 ****  ****    0 ROOT
