@<TRIPOS>MOLECULE
DQE
   34    36     1     0     0
SMALL
No Charge or Current Charge


@<TRIPOS>ATOM
      1 C01         22.3420    34.1540    74.3440 c3         1 DQE      -0.123100
      2 C02         23.1540    33.7870    75.6030 c3         1 DQE       0.170600
      3 C04         22.8680    35.8240    76.9010 c          1 DQE       0.629300
      4 C06         22.1610    36.4140    78.0630 cc         1 DQE      -0.139300
      5 C07         22.2510    37.7430    78.4650 cd         1 DQE      -0.148200
      6 C08         21.4350    37.9720    79.6300 ca         1 DQE      -0.128800
      7 C09         21.1970    39.1220    80.3910 ca         1 DQE      -0.024000
      8 C10         20.3160    39.0300    81.5070 cp         1 DQE      -0.084000
      9 C11         20.0250    40.2290    82.3560 cp         1 DQE       0.017000
     10 C12         18.7710    40.4160    82.9840 ca         1 DQE      -0.161000
     11 C13         18.5380    41.5560    83.7720 ca         1 DQE       0.334400
     12 C15         20.6750    42.3510    83.3800 ca         1 DQE       0.334400
     13 C16         20.9880    41.2430    82.5760 ca         1 DQE      -0.161000
     14 C17         19.7190    37.7630    81.7940 ca         1 DQE      -0.063000
     15 C18         19.9850    36.6240    81.0010 ca         1 DQE      -0.134000
     16 C19         20.8560    36.7700    79.9180 ca         1 DQE      -0.025200
     17 N14         19.4700    42.5140    83.9730 nb         1 DQE      -0.665000
     18 N20         21.2760    35.8240    78.9950 na         1 DQE      -0.191700
     19 O03         22.6000    34.4860    76.7360 os         1 DQE      -0.461100
     20 O05         23.6170    36.4620    76.1720 o          1 DQE      -0.474000
     21 H013        22.6930    33.5670    73.4870 hc         1 DQE       0.050033
     22 H012        21.2780    33.9350    74.4940 hc         1 DQE       0.050033
     23 H011        22.4500    35.2150    74.0920 hc         1 DQE       0.050033
     24 H021        23.0780    32.7040    75.7610 h1         1 DQE       0.061200
     25 H022        24.2170    34.0280    75.4600 h1         1 DQE       0.061200
     26 H071        22.8560    38.4980    77.9650 ha         1 DQE       0.222000
     27 H091        21.6680    40.0630    80.1190 ha         1 DQE       0.122000
     28 H121        17.9700    39.6940    82.8560 ha         1 DQE       0.123500
     29 H131        17.5740    41.7080    84.2550 h4         1 DQE       0.017600
     30 H151        21.4130    43.1320    83.5580 h4         1 DQE       0.017600
     31 H161        21.9800    41.1720    82.1430 ha         1 DQE       0.123500
     32 H171        19.0540    37.6580    82.6470 ha         1 DQE       0.116000
     33 H181        19.5270    35.6640    81.2300 ha         1 DQE       0.120000
     34 H201        20.9900    34.8500    78.9890 hn         1 DQE       0.366000
@<TRIPOS>BOND
     1     1     2 1   
     2     1    21 1   
     3     1    22 1   
     4     1    23 1   
     5     2    19 1   
     6     2    24 1   
     7     2    25 1   
     8     3     4 1   
     9     3    19 1   
    10     3    20 2   
    11     4     5 2   
    12     4    18 1   
    13     5     6 1   
    14     5    26 1   
    15     6     7 ar  
    16     6    16 ar  
    17     7     8 ar  
    18     7    27 1   
    19     8     9 1   
    20     8    14 ar  
    21     9    10 ar  
    22     9    13 ar  
    23    10    11 ar  
    24    10    28 1   
    25    11    17 ar  
    26    11    29 1   
    27    12    13 ar  
    28    12    17 ar  
    29    12    30 1   
    30    13    31 1   
    31    14    15 ar  
    32    14    32 1   
    33    15    16 ar  
    34    15    33 1   
    35    16    18 1   
    36    18    34 1   
@<TRIPOS>SUBSTRUCTURE
     1 DQE         1 TEMP              0 ****  ****    0 ROOT
