@<TRIPOS>MOLECULE
DQF
   56    58     1     0     0
SMALL
No Charge or Current Charge


@<TRIPOS>ATOM
      1 C4           4.3230     1.7030     0.1950 ca         1 DQF       0.213300
      2 C5           4.9290     0.4910    -0.2320 cp         1 DQF      -0.288000
      3 C6           5.9980     0.6330    -1.1420 ca         1 DQF       0.441900
      4 N1           6.4310     1.8140    -1.5870 nb         1 DQF      -0.339000
      5 N3           4.7560     2.8990    -0.2540 nb         1 DQF      -0.287000
      6 OBE        -10.1540     0.1080    -2.4080 o          1 DQF      -0.737000
      7 CBD         -9.7220    -0.7990    -1.7130 c          1 DQF       0.720000
      8 OBF         -9.8270    -1.9810    -2.0000 o          1 DQF      -0.737000
      9 CBC         -8.9430    -0.4280    -0.4390 c3         1 DQF      -0.208400
     10 CBB         -7.4380    -0.2560    -0.7670 c3         1 DQF      -0.059400
     11 CBA         -6.5880     0.1180     0.4640 c3         1 DQF       0.153600
     12 CAX         -4.2060     0.5770     0.9020 ca         1 DQF       0.200100
     13 CAY         -2.9090     0.6800     0.3830 ca         1 DQF      -0.198000
     14 CAW         -4.4270     0.8110     2.2760 ca         1 DQF      -0.237000
     15 CAV         -3.3510     1.1430     3.1150 ca         1 DQF      -0.042000
     16 CAU         -2.0530     1.2440     2.5870 ca         1 DQF      -0.253000
     17 CAT         -1.8300     1.0120     1.2140 ca         1 DQF       0.172100
     18 OAS         -0.5780     1.0960     0.6410 os         1 DQF      -0.351100
     19 CAR          0.5920     1.4250     1.4070 c3         1 DQF       0.170600
     20 CAQ          1.7960     1.4170     0.4470 c3         1 DQF      -0.078400
     21 CAJ          3.1330     1.7510     1.1490 c3         1 DQF      -0.134700
     22 C2           5.7810     2.8770    -1.1120 ca         1 DQF       0.415900
     23 NAH          6.2100     4.0780    -1.5600 nv         1 DQF      -1.054900
     24 NAG          6.6780    -0.4320    -1.6270 nv         1 DQF      -1.085900
     25 CAI          4.4550    -0.8430     0.2370 cp         1 DQF      -0.003000
     26 CAO          3.7580    -1.7090    -0.6380 ca         1 DQF      -0.099000
     27 CAN          3.2990    -2.9600    -0.1940 ca         1 DQF       0.118000
     28 Cl           2.4270    -4.0160    -1.2980 cl         1 DQF      -0.197000
     29 CAM          3.5320    -3.3690     1.1290 ca         1 DQF      -0.105000
     30 CAL          4.2270    -2.5230     2.0110 ca         1 DQF      -0.108000
     31 CAK          4.6840    -1.2700     1.5660 ca         1 DQF      -0.106000
     32 H2          -9.2780     0.5420    -0.0520 hc         1 DQF       0.017200
     33 H3          -8.9990    -1.2400     0.2960 hc         1 DQF       0.017200
     34 H4          -7.0520    -1.1880    -1.1960 hc         1 DQF       0.056700
     35 H5          -7.3200     0.5230    -1.5300 hc         1 DQF       0.056700
     36 H6          -6.9520     1.0640     0.8870 h1         1 DQF       0.024200
     37 H7          -6.6800    -0.6680     1.2250 h1         1 DQF       0.024200
     38 H8          -2.7380     0.5010    -0.6740 ha         1 DQF       0.140000
     39 H9          -5.4210     0.7390     2.7090 ha         1 DQF       0.124000
     40 H10         -3.5230     1.3230     4.1740 ha         1 DQF       0.099000
     41 H11         -1.2390     1.5030     3.2570 ha         1 DQF       0.106000
     42 H12          0.4920     2.4190     1.8630 h1         1 DQF       0.031200
     43 H13          0.7550     0.6860     2.2030 h1         1 DQF       0.031200
     44 H14          1.8670     0.4290    -0.0220 hc         1 DQF       0.062200
     45 H15          1.6200     2.1420    -0.3570 hc         1 DQF       0.062200
     46 H16          3.2880     1.0560     1.9810 hc         1 DQF       0.060200
     47 H17          3.0530     2.7460     1.6070 hc         1 DQF       0.060200
     48 H18          5.6120     4.8870    -1.4120 hn         1 DQF       0.487500
     49 H19          6.8220     4.1000    -2.3720 hn         1 DQF       0.487500
     50 H20          6.2850    -1.3580    -1.4840 hn         1 DQF       0.499500
     51 H21          7.2720    -0.2990    -2.4410 hn         1 DQF       0.499500
     52 H22          3.5650    -1.4000    -1.6610 ha         1 DQF       0.137000
     53 H23          3.1760    -4.3380     1.4690 ha         1 DQF       0.129000
     54 H24          4.4110    -2.8370     3.0360 ha         1 DQF       0.116000
     55 H25          5.2220    -0.6210     2.2530 ha         1 DQF       0.121000
     56 OAZ         -5.2240     0.2480     0.0320 os         1 DQF      -0.342100
@<TRIPOS>BOND
     1     1     2 ar  
     2     1     5 ar  
     3     1    21 1   
     4     2     3 ar  
     5     2    25 1   
     6     3     4 ar  
     7     3    24 1   
     8     4    22 ar  
     9     5    22 ar  
    10     6     7 1   
    11     7     8 1   
    12     7     9 1   
    13     9    10 1   
    14     9    32 1   
    15     9    33 1   
    16    10    11 1   
    17    10    34 1   
    18    10    35 1   
    19    11    36 1   
    20    11    37 1   
    21    11    56 1   
    22    12    13 ar  
    23    12    14 ar  
    24    12    56 1   
    25    13    17 ar  
    26    13    38 1   
    27    14    15 ar  
    28    14    39 1   
    29    15    16 ar  
    30    15    40 1   
    31    16    17 ar  
    32    16    41 1   
    33    17    18 1   
    34    18    19 1   
    35    19    20 1   
    36    19    42 1   
    37    19    43 1   
    38    20    21 1   
    39    20    44 1   
    40    20    45 1   
    41    21    46 1   
    42    21    47 1   
    43    22    23 1   
    44    23    48 1   
    45    23    49 1   
    46    24    50 1   
    47    24    51 1   
    48    25    26 ar  
    49    25    31 ar  
    50    26    27 ar  
    51    26    52 1   
    52    27    28 1   
    53    27    29 ar  
    54    29    30 ar  
    55    29    53 1   
    56    30    31 ar  
    57    30    54 1   
    58    31    55 1   
@<TRIPOS>SUBSTRUCTURE
     1 DQF         1 TEMP              0 ****  ****    0 ROOT
