@<TRIPOS>MOLECULE
DQF
   56    58     1     0     0
SMALL
bcc


@<TRIPOS>ATOM
      1 C4           4.1520     1.6060     0.2070 ca         1 DQF       0.541600
      2 C5           4.8680     0.4850    -0.1740 cp         1 DQF      -0.418600
      3 C6           5.8950     0.7020    -1.1240 ca         1 DQF       0.770200
      4 N1           6.1500     1.9130    -1.6110 nb         1 DQF      -0.865000
      5 N3           4.4080     2.8230    -0.2760 nb         1 DQF      -0.813000
      6 OBE         -9.3860    -0.4950    -2.7930 o          1 DQF      -0.842300
      7 CBD         -9.8280    -0.5720    -1.6310 c          1 DQF       0.930600
      8 OBF        -10.9970    -0.8620    -1.3000 o          1 DQF      -0.842300
      9 CBC         -8.8580    -0.2790    -0.4700 c3         1 DQF      -0.208400
     10 CBB         -7.4160    -0.0200    -0.8770 c3         1 DQF      -0.059400
     11 CBA         -6.5430     0.2340     0.3340 c3         1 DQF       0.130400
     12 CAX         -4.2360     0.6470     0.7910 ca         1 DQF       0.200100
     13 CAY         -2.9520     0.7940     0.2750 ca         1 DQF      -0.216000
     14 CAW         -4.4450     0.7090     2.1710 ca         1 DQF      -0.255000
     15 CAV         -3.3520     0.9180     2.9990 ca         1 DQF      -0.060000
     16 CAU         -2.0650     1.0670     2.5040 ca         1 DQF      -0.271000
     17 CAT         -1.8690     1.0030     1.1230 ca         1 DQF       0.172100
     18 OAS         -0.6720     1.1290     0.5190 os         1 DQF      -0.327900
     19 CAR          0.4920     1.3000     1.3100 c3         1 DQF       0.147400
     20 CAQ          1.6810     1.3480     0.3740 c3         1 DQF      -0.078400
     21 CAJ          2.9890     1.5100     1.1510 c3         1 DQF      -0.134700
     22 C2           5.3990     2.9160    -1.1620 ca         1 DQF       0.941900
     23 NAH          5.6940     4.1520    -1.6250 nv         1 DQF      -0.944500
     24 NAG          6.6570    -0.3090    -1.5660 nv         1 DQF      -0.975500
     25 CAI          4.5940    -0.8720     0.3500 cp         1 DQF      -0.003000
     26 CAO          3.7830    -1.7480    -0.3680 ca         1 DQF      -0.117000
     27 CAN          3.5380    -3.0190     0.1250 ca         1 DQF       0.026400
     28 CL           2.5220    -4.0960    -0.7800 cl         1 DQF      -0.105400
     29 CAM          4.0850    -3.4490     1.3240 ca         1 DQF      -0.123000
     30 CAL          4.8970    -2.5760     2.0350 ca         1 DQF      -0.126000
     31 CAK          5.1550    -1.3020     1.5520 ca         1 DQF      -0.124000
     32 H2          -9.2480     0.5810     0.0850 hc         1 DQF       0.017200
     33 H3          -8.9030    -1.1180     0.2330 hc         1 DQF       0.017200
     34 H4          -7.0230    -0.8780    -1.4270 hc         1 DQF       0.056700
     35 H5          -7.3640     0.8390    -1.5500 hc         1 DQF       0.056700
     36 H6          -6.9000     1.1110     0.8880 h1         1 DQF       0.024200
     37 H7          -6.5820    -0.6230     1.0160 h1         1 DQF       0.024200
     38 H8          -2.7960     0.7440    -0.7960 ha         1 DQF       0.158000
     39 H9          -5.4290     0.5990     2.6040 ha         1 DQF       0.142000
     40 H10         -3.5090     0.9670     4.0690 ha         1 DQF       0.117000
     41 H11         -1.2460     1.2270     3.1910 ha         1 DQF       0.124000
     42 H12          0.4290     2.2250     1.8950 h1         1 DQF       0.031200
     43 H13          0.6020     0.4680     2.0160 h1         1 DQF       0.031200
     44 H14          1.7140     0.4280    -0.2170 hc         1 DQF       0.062200
     45 H15          1.5670     2.1790    -0.3270 hc         1 DQF       0.062200
     46 H16          3.1140     0.6690     1.8350 hc         1 DQF       0.060200
     47 H17          2.9510     2.4200     1.7530 hc         1 DQF       0.060200
     48 H18          5.0170     4.8810    -1.4800 hn         1 DQF       0.432300
     49 H19          6.2570     4.2260    -2.4540 hn         1 DQF       0.432300
     50 H20          6.5050    -1.2570    -1.2740 hn         1 DQF       0.444300
     51 H21          7.3610    -0.1370    -2.2620 hn         1 DQF       0.444300
     52 H22          3.3440    -1.4330    -1.3070 ha         1 DQF       0.155000
     53 H23          3.8850    -4.4440     1.6960 ha         1 DQF       0.147000
     54 H24          5.3310    -2.8990     2.9710 ha         1 DQF       0.134000
     55 H25          5.7930    -0.6300     2.1130 ha         1 DQF       0.139000
     56 OAZ         -5.2110     0.4460    -0.1140 os         1 DQF      -0.318900
@<TRIPOS>BOND
     1     1     2 ar  
     2     1     5 ar  
     3     1    21 1   
     4     2     3 ar  
     5     2    25 1   
     6     3     4 ar  
     7     3    24 1   
     8     4    22 ar  
     9     5    22 ar  
    10     6     7 1   
    11     7     8 1   
    12     7     9 1   
    13     9    10 1   
    14     9    32 1   
    15     9    33 1   
    16    10    11 1   
    17    10    34 1   
    18    10    35 1   
    19    11    36 1   
    20    11    37 1   
    21    11    56 1   
    22    12    13 ar  
    23    12    14 ar  
    24    12    56 1   
    25    13    17 ar  
    26    13    38 1   
    27    14    15 ar  
    28    14    39 1   
    29    15    16 ar  
    30    15    40 1   
    31    16    17 ar  
    32    16    41 1   
    33    17    18 1   
    34    18    19 1   
    35    19    20 1   
    36    19    42 1   
    37    19    43 1   
    38    20    21 1   
    39    20    44 1   
    40    20    45 1   
    41    21    46 1   
    42    21    47 1   
    43    22    23 1   
    44    23    48 1   
    45    23    49 1   
    46    24    50 1   
    47    24    51 1   
    48    25    26 ar  
    49    25    31 ar  
    50    26    27 ar  
    51    26    52 1   
    52    27    28 1   
    53    27    29 ar  
    54    29    30 ar  
    55    29    53 1   
    56    30    31 ar  
    57    30    54 1   
    58    31    55 1   
@<TRIPOS>SUBSTRUCTURE
     1 DQF         1 TEMP              0 ****  ****    0 ROOT
