@<TRIPOS>MOLECULE
DQG
   52    55     1     0     0
SMALL
No Charge or Current Charge


@<TRIPOS>ATOM
      1 C10        -29.3300    21.9600     3.6600 ca         1 DQG      -0.119000
      2 C13        -27.6830    23.0030     5.6870 ca         1 DQG       0.138000
      3 C17        -25.3510    25.0170     1.2070 c3         1 DQG       0.175800
      4 C20        -21.5380    24.4040     0.7250 c6         1 DQG      -0.072900
      5 C21        -21.2440    25.8940     0.4450 c6         1 DQG      -0.065400
      6 C24        -22.2550    26.4590    -0.5880 c6         1 DQG      -0.072900
      7 C26        -24.4330    20.5180     3.3600 cc         1 DQG      -0.340800
      8 C03        -23.5070    18.6330     6.2790 ca         1 DQG      -0.103600
      9 C04        -23.9870    19.5920     5.3620 ca         1 DQG      -0.054200
     10 C06        -24.8960    21.3830     4.3490 cd         1 DQG      -0.090300
     11 C19        -22.9940    24.1810     1.2300 c6         1 DQG       0.166800
     12 C25        -23.6900    25.8760    -0.4210 c6         1 DQG       0.166800
     13 C27        -23.8590    19.3900     4.0120 ca         1 DQG       0.297800
     14 C29        -22.8230    17.3790     4.2760 ca         1 DQG       0.282900
     15 C30        -22.9060    17.4910     5.6850 ca         1 DQG      -0.142000
     16 N05        -24.6190    20.8040     5.6140 na         1 DQG      -0.192700
     17 N18        -23.9140    25.3270     0.9430 n3         1 DQG      -0.728600
     18 N28        -23.2960    18.3210     3.4230 nb         1 DQG      -0.667000
     19 O01        -24.1410    19.7980     8.2440 o          1 DQG      -0.722000
     20 O15        -25.3650    23.2170     2.8700 os         1 DQG      -0.453000
     21 O31        -23.1700    17.8990     8.4980 o          1 DQG      -0.722000
     22 C07        -25.5990    22.7180     4.2020 c3         1 DQG       0.284800
     23 C08        -27.1070    22.6090     4.4560 ca         1 DQG      -0.105300
     24 C09        -27.9460    22.0760     3.4510 ca         1 DQG      -0.077000
     25 C11        -29.8940    22.3660     4.8790 ca         1 DQG      -0.106000
     26 C12        -29.0690    22.8830     5.8910 ca         1 DQG      -0.107000
     27 Cl1        -26.7020    23.6350     7.0100 cl         1 DQG      -0.203000
     28 H1         -29.9650    21.5520     2.8770 ha         1 DQG       0.110000
     29 H2         -25.9470    25.9110     0.9780 h1         1 DQG       0.032700
     30 H3         -25.6980    24.2290     0.5250 h1         1 DQG       0.032700
     31 H6         -20.2160    26.0230     0.0800 hc         1 DQG       0.038200
     32 H7         -21.3170    26.4610     1.3830 hc         1 DQG       0.038200
     33 H8         -21.9040    26.2520    -1.6080 hc         1 DQG       0.038950
     34 H9         -22.2890    27.5520    -0.4920 hc         1 DQG       0.038950
     35 H10        -24.5030    20.6830     2.2900 ha         1 DQG       0.198000
     36 H13        -23.3780    23.2520     0.7820 h1         1 DQG       0.035200
     37 H14        -22.9520    24.0140     2.3160 h1         1 DQG       0.035200
     38 H15        -24.4190    26.6680    -0.6510 h1         1 DQG       0.035200
     39 H16        -23.8400    25.0810    -1.1670 h1         1 DQG       0.035200
     40 H17        -22.3630    16.5040     3.8180 h4         1 DQG      -0.009900
     41 H18        -22.5030    16.6910     6.3010 ha         1 DQG       0.130000
     42 H19        -24.8400    21.1820     6.5320 hn         1 DQG       0.396000
     43 H22        -25.1410    23.4080     4.9220 h1         1 DQG       0.059700
     44 H23        -27.5210    21.7510     2.5040 ha         1 DQG       0.131000
     45 H24        -30.9660    22.2750     5.0430 ha         1 DQG       0.108000
     46 H25        -29.5030    23.1900     6.8390 ha         1 DQG       0.126000
     47 C02        -23.6160    18.7900     7.7890 c          1 DQG       0.715600
     48 H4         -21.3850    23.8290    -0.1980 hc         1 DQG       0.038950
     49 C16        -25.7140    24.6040     2.6620 c3         1 DQG       0.154600
     50 H5         -20.8240    24.0040     1.4580 hc         1 DQG       0.038950
     51 H11        -25.1880    25.2570     3.3700 h1         1 DQG       0.036200
     52 H12        -26.7930    24.7480     2.8040 h1         1 DQG       0.036200
@<TRIPOS>BOND
     1     1    24 ar  
     2     1    25 ar  
     3     1    28 1   
     4     2    23 ar  
     5     2    26 ar  
     6     2    27 1   
     7     3    17 1   
     8     3    29 1   
     9     3    30 1   
    10     3    49 1   
    11     4     5 1   
    12     4    11 1   
    13     4    48 1   
    14     4    50 1   
    15     5     6 1   
    16     5    31 1   
    17     5    32 1   
    18     6    12 1   
    19     6    33 1   
    20     6    34 1   
    21     7    10 2   
    22     7    13 1   
    23     7    35 1   
    24     8     9 ar  
    25     8    15 ar  
    26     8    47 1   
    27     9    13 ar  
    28     9    16 1   
    29    10    16 1   
    30    10    22 1   
    31    11    17 1   
    32    11    36 1   
    33    11    37 1   
    34    12    17 1   
    35    12    38 1   
    36    12    39 1   
    37    13    18 ar  
    38    14    15 ar  
    39    14    18 ar  
    40    14    40 1   
    41    15    41 1   
    42    16    42 1   
    43    19    47 1   
    44    20    22 1   
    45    20    49 1   
    46    21    47 1   
    47    22    23 1   
    48    22    43 1   
    49    23    24 ar  
    50    24    44 1   
    51    25    26 ar  
    52    25    45 1   
    53    26    46 1   
    54    49    51 1   
    55    49    52 1   
@<TRIPOS>SUBSTRUCTURE
     1 DQG         1 TEMP              0 ****  ****    0 ROOT
