@<TRIPOS>MOLECULE
DQG
   52    55     1     0     0
SMALL
abcg2


@<TRIPOS>ATOM
      1 C10        -29.2490    21.9280     3.7610 ca         1 DQG      -0.119000
      2 C13        -27.5100    22.9070     5.6740 ca         1 DQG       0.138000
      3 C17        -25.3230    24.9460     1.1260 c3         1 DQG       0.175800
      4 C20        -21.5690    24.5710     1.1080 c6         1 DQG      -0.072900
      5 C21        -21.3460    25.9960     0.5730 c6         1 DQG      -0.065400
      6 C24        -22.2490    26.2410    -0.6330 c6         1 DQG      -0.072900
      7 C26        -24.4890    20.4470     3.2370 cc         1 DQG      -0.340800
      8 C03        -23.5700    18.7090     6.2830 ca         1 DQG      -0.103600
      9 C04        -24.0240    19.6110     5.3250 ca         1 DQG      -0.054200
     10 C06        -24.8530    21.3600     4.1970 cd         1 DQG      -0.090300
     11 C19        -23.0210    24.1150     0.8880 c6         1 DQG       0.166800
     12 C25        -23.7310    26.1220    -0.2390 c6         1 DQG       0.166800
     13 C27        -23.9540    19.3140     3.9330 ca         1 DQG       0.297800
     14 C29        -23.0320    17.2900     4.3850 ca         1 DQG       0.282900
     15 C30        -23.0640    17.5180     5.7660 ca         1 DQG      -0.142000
     16 N05        -24.5750    20.8560     5.4470 na         1 DQG      -0.192700
     17 N18        -23.9160    25.2720     0.9460 n3         1 DQG      -0.728600
     18 N28        -23.4600    18.1570     3.4640 nb         1 DQG      -0.667000
     19 O01        -24.1140    20.1390     8.0830 o          1 DQG      -0.722000
     20 O15        -25.3470    23.1260     2.7230 os         1 DQG      -0.453000
     21 O31        -23.1920    18.1470     8.5620 o          1 DQG      -0.722000
     22 C07        -25.5270    22.6900     4.0550 c3         1 DQG       0.284800
     23 C08        -27.0040    22.5690     4.4220 ca         1 DQG      -0.105300
     24 C09        -27.9000    22.0710     3.4750 ca         1 DQG      -0.077000
     25 C11        -29.7300    22.2790     5.0190 ca         1 DQG      -0.106000
     26 C12        -28.8590    22.7690     5.9820 ca         1 DQG      -0.107000
     27 CL1        -26.4450    23.5180     6.9330 cl         1 DQG      -0.203000
     28 H1         -29.9230    21.5440     3.0070 ha         1 DQG       0.110000
     29 H2         -25.8940    25.8560     0.9270 h1         1 DQG       0.032700
     30 H3         -25.6690    24.1920     0.3970 h1         1 DQG       0.032700
     31 H6         -20.2970    26.1430     0.3040 hc         1 DQG       0.038200
     32 H7         -21.5800    26.7260     1.3510 hc         1 DQG       0.038200
     33 H8         -22.0120    25.5040    -1.4060 hc         1 DQG       0.038950
     34 H9         -22.0680    27.2240    -1.0710 hc         1 DQG       0.038950
     35 H10        -24.5960    20.5700     2.1730 ha         1 DQG       0.198000
     36 H13        -23.1220    23.5980    -0.0820 h1         1 DQG       0.035200
     37 H14        -23.3150    23.4030     1.6540 h1         1 DQG       0.035200
     38 H15        -24.1440    27.1080    -0.0070 h1         1 DQG       0.035200
     39 H16        -24.3040    25.7260    -1.0950 h1         1 DQG       0.035200
     40 H17        -22.6340    16.3520     4.0110 h4         1 DQG      -0.009900
     41 H18        -22.6910    16.7630     6.4440 ha         1 DQG       0.130000
     42 H19        -24.7100    21.2930     6.3480 hn         1 DQG       0.396000
     43 H22        -25.0520    23.4010     4.7390 h1         1 DQG       0.059700
     44 H23        -27.5170    21.8040     2.4980 ha         1 DQG       0.131000
     45 H24        -30.7810    22.1730     5.2550 ha         1 DQG       0.108000
     46 H25        -29.2160    23.0440     6.9650 ha         1 DQG       0.126000
     47 C02        -23.6270    19.0170     7.7730 c          1 DQG       0.715600
     48 H4         -20.8980    23.8700     0.6050 hc         1 DQG       0.038950
     49 C16        -25.7020    24.4960     2.5230 c3         1 DQG       0.154600
     50 H5         -21.3280    24.5350     2.1730 hc         1 DQG       0.038950
     51 H11        -25.1900    25.1180     3.2670 h1         1 DQG       0.036200
     52 H12        -26.7820    24.6160     2.6590 h1         1 DQG       0.036200
@<TRIPOS>BOND
     1     1    24 ar  
     2     1    25 ar  
     3     1    28 1   
     4     2    23 ar  
     5     2    26 ar  
     6     2    27 1   
     7     3    17 1   
     8     3    29 1   
     9     3    30 1   
    10     3    49 1   
    11     4     5 1   
    12     4    11 1   
    13     4    48 1   
    14     4    50 1   
    15     5     6 1   
    16     5    31 1   
    17     5    32 1   
    18     6    12 1   
    19     6    33 1   
    20     6    34 1   
    21     7    10 2   
    22     7    13 1   
    23     7    35 1   
    24     8     9 ar  
    25     8    15 ar  
    26     8    47 1   
    27     9    13 ar  
    28     9    16 1   
    29    10    16 1   
    30    10    22 1   
    31    11    17 1   
    32    11    36 1   
    33    11    37 1   
    34    12    17 1   
    35    12    38 1   
    36    12    39 1   
    37    13    18 ar  
    38    14    15 ar  
    39    14    18 ar  
    40    14    40 1   
    41    15    41 1   
    42    16    42 1   
    43    19    47 1   
    44    20    22 1   
    45    20    49 1   
    46    21    47 1   
    47    22    23 1   
    48    22    43 1   
    49    23    24 ar  
    50    24    44 1   
    51    25    26 ar  
    52    25    45 1   
    53    26    46 1   
    54    49    51 1   
    55    49    52 1   
@<TRIPOS>SUBSTRUCTURE
     1 DQG         1 TEMP              0 ****  ****    0 ROOT
