@<TRIPOS>MOLECULE
DQH
   34    36     1     0     0
SMALL
abcg2


@<TRIPOS>ATOM
      1 C1          -0.5190     0.0450     4.5800 ca         1 DQH      -0.257000
      2 C2           0.6000    -0.2080     3.8070 ca         1 DQH       0.291100
      3 C3           0.5070    -0.2340     2.3930 ca         1 DQH      -0.418600
      4 C4          -0.7420     0.0260     1.7970 ca         1 DQH       0.270100
      5 C5          -1.8630     0.2820     2.5600 ca         1 DQH      -0.310000
      6 C6          -1.7420     0.2780     3.9520 ca         1 DQH       0.252100
      7 C9           1.6380    -0.5810     1.5760 c          1 DQH       0.574700
      8 C10          1.3670    -0.7450     0.0920 c6         1 DQH       0.060300
      9 C11          0.2850     0.2450    -0.3260 c6         1 DQH       0.237600
     10 C14         -0.1040     0.1130    -1.7670 ca         1 DQH      -0.078300
     11 C15         -0.6330    -1.0730    -2.2590 ca         1 DQH      -0.079000
     12 C16         -0.9820    -1.1760    -3.5980 ca         1 DQH      -0.165000
     13 C17         -0.8050    -0.1020    -4.4580 ca         1 DQH       0.057100
     14 C18         -0.2760     1.0980    -3.9670 ca         1 DQH       0.119100
     15 C19          0.0660     1.1920    -2.6270 ca         1 DQH      -0.090000
     16 O12         -0.8870     0.0280     0.4630 os         1 DQH      -0.336100
     17 O13          2.7640    -0.7820     2.0260 o          1 DQH      -0.578100
     18 O23         -0.0880     2.1700    -4.7640 oh         1 DQH      -0.533100
     19 O24         -1.1180    -0.1230    -5.7720 oh         1 DQH      -0.555100
     20 O27          2.4950    -0.5050    -0.6860 oh         1 DQH      -0.632000
     21 O29         -2.7910     0.5120     4.7420 oh         1 DQH      -0.517100
     22 O30          1.7590    -0.4310     4.4160 oh         1 DQH      -0.532100
     23 H1          -0.4470     0.0610     5.6600 ha         1 DQH       0.153000
     24 H5          -2.8110     0.4920     2.0800 ha         1 DQH       0.137000
     25 H10          0.9790    -1.7710    -0.0360 h1         1 DQH       0.065700
     26 H11          0.6540     1.2620    -0.1370 h1         1 DQH       0.073700
     27 H15         -0.7780    -1.9280    -1.6110 ha         1 DQH       0.119000
     28 H16         -1.3910    -2.1050    -3.9790 ha         1 DQH       0.115000
     29 H19          0.4740     2.1260    -2.2580 ha         1 DQH       0.135000
     30 H23         -0.3830     1.9820    -5.6620 ho         1 DQH       0.483000
     31 H24         -1.4870    -0.9760    -6.0250 ho         1 DQH       0.476000
     32 H27          3.2270    -1.0290    -0.3400 ho         1 DQH       0.469000
     33 H29         -3.5830     0.6850     4.2200 ho         1 DQH       0.476000
     34 H30          2.4420    -0.6010     3.7310 ho         1 DQH       0.516000
@<TRIPOS>BOND
     1     1     2 ar  
     2     1     6 ar  
     3     1    23 1   
     4     2     3 ar  
     5     2    22 1   
     6     3     4 ar  
     7     3     7 1   
     8     4     5 ar  
     9     4    16 1   
    10     5     6 ar  
    11     5    24 1   
    12     6    21 1   
    13     7     8 1   
    14     7    17 2   
    15     8     9 1   
    16     8    20 1   
    17     8    25 1   
    18     9    10 1   
    19     9    16 1   
    20     9    26 1   
    21    10    11 ar  
    22    10    15 ar  
    23    11    12 ar  
    24    11    27 1   
    25    12    13 ar  
    26    12    28 1   
    27    13    14 ar  
    28    13    19 1   
    29    14    15 ar  
    30    14    18 1   
    31    15    29 1   
    32    18    30 1   
    33    19    31 1   
    34    20    32 1   
    35    21    33 1   
    36    22    34 1   
@<TRIPOS>SUBSTRUCTURE
     1 DQH         1 TEMP              0 ****  ****    0 ROOT
