@<TRIPOS>MOLECULE
DQH
   34    36     1     0     0
SMALL
No Charge or Current Charge


@<TRIPOS>ATOM
      1 C1          -0.5430     0.0410     4.6290 ca         1 DQH      -0.257000
      2 C2           0.5820    -0.2620     3.8590 ca         1 DQH       0.291100
      3 C3           0.5020    -0.2880     2.4560 ca         1 DQH      -0.418600
      4 C4          -0.7300    -0.0010     1.8440 ca         1 DQH       0.270100
      5 C5          -1.8600     0.2830     2.6160 ca         1 DQH      -0.310000
      6 C6          -1.7640     0.3080     4.0080 ca         1 DQH       0.252100
      7 C9           1.6710    -0.6630     1.5970 c          1 DQH       0.574700
      8 C10          1.4710    -0.6730     0.0600 c6         1 DQH       0.060300
      9 C11          0.3000     0.2620    -0.3270 c6         1 DQH       0.237600
     10 C14         -0.1060     0.1410    -1.8020 ca         1 DQH      -0.078300
     11 C15         -0.6820    -1.0500    -2.2930 ca         1 DQH      -0.079000
     12 C16         -1.0530    -1.1600    -3.6460 ca         1 DQH      -0.165000
     13 C17         -0.8520    -0.0770    -4.5180 ca         1 DQH       0.057100
     14 C18         -0.2790     1.1160    -4.0330 ca         1 DQH       0.119100
     15 C19          0.0920     1.2250    -2.6820 ca         1 DQH      -0.090000
     16 O12         -0.8610    -0.0050     0.4800 os         1 DQH      -0.336100
     17 O13          2.7380    -1.0080     2.0980 o          1 DQH      -0.578100
     18 O23         -0.0870     2.1640    -4.8860 oh         1 DQH      -0.533100
     19 O24         -1.2120    -0.1790    -5.8350 oh         1 DQH      -0.555100
     20 O27          2.6980    -0.3240    -0.6430 oh         1 DQH      -0.632000
     21 O29         -2.8560     0.5920     4.7640 oh         1 DQH      -0.517100
     22 O30          1.7480    -0.5420     4.4890 oh         1 DQH      -0.532100
     23 H1          -0.4700     0.0580     5.7120 ha         1 DQH       0.153000
     24 H5          -2.8040     0.4910     2.1200 ha         1 DQH       0.137000
     25 H10          1.1770    -1.7030    -0.1840 h1         1 DQH       0.065700
     26 H11          0.6080     1.2990    -0.1250 h1         1 DQH       0.073700
     27 H15         -0.8460    -1.8930    -1.6240 ha         1 DQH       0.119000
     28 H16         -1.4960    -2.0860    -4.0060 ha         1 DQH       0.115000
     29 H19          0.5350     2.1510    -2.3230 ha         1 DQH       0.135000
     30 H23         -0.4160     1.8610    -5.7630 ho         1 DQH       0.483000
     31 H24         -1.5920    -1.0730    -5.9920 ho         1 DQH       0.476000
     32 H27          3.4380    -0.7530    -0.1520 ho         1 DQH       0.469000
     33 H29         -3.6090     0.7480     4.1570 ho         1 DQH       0.476000
     34 H30          2.3860    -0.7740     3.7680 ho         1 DQH       0.516000
@<TRIPOS>BOND
     1     1     2 ar  
     2     1     6 ar  
     3     1    23 1   
     4     2     3 ar  
     5     2    22 1   
     6     3     4 ar  
     7     3     7 1   
     8     4     5 ar  
     9     4    16 1   
    10     5     6 ar  
    11     5    24 1   
    12     6    21 1   
    13     7     8 1   
    14     7    17 2   
    15     8     9 1   
    16     8    20 1   
    17     8    25 1   
    18     9    10 1   
    19     9    16 1   
    20     9    26 1   
    21    10    11 ar  
    22    10    15 ar  
    23    11    12 ar  
    24    11    27 1   
    25    12    13 ar  
    26    12    28 1   
    27    13    14 ar  
    28    13    19 1   
    29    14    15 ar  
    30    14    18 1   
    31    15    29 1   
    32    18    30 1   
    33    19    31 1   
    34    20    32 1   
    35    21    33 1   
    36    22    34 1   
@<TRIPOS>SUBSTRUCTURE
     1 DQH         1 TEMP              0 ****  ****    0 ROOT
