@<TRIPOS>MOLECULE
DQJ
   43    45     1     0     0
SMALL
No Charge or Current Charge


@<TRIPOS>ATOM
      1 C02          1.0560    -0.9090     0.1870 c          1 DQJ       0.538600
      2 C03          2.4030    -0.2080     0.1190 cc         1 DQJ       0.200500
      3 C04          3.5900    -0.9690     0.1570 cc         1 DQJ      -0.169000
      4 C05          4.6440    -0.1150     0.0720 cd         1 DQJ      -0.150300
      5 C06          6.1280    -0.3970     0.0680 c3         1 DQJ      -0.000400
      6 C07          6.7820     0.0390    -1.2600 c3         1 DQJ      -0.089100
      7 C08          6.8270     0.2400     1.2880 c3         1 DQJ      -0.089100
      8 C12         -0.2260     1.3450     0.2310 c5         1 DQJ       0.118000
      9 C13         -1.7310     1.5780     0.5290 c5         1 DQJ      -0.112400
     10 C14         -2.3730     0.4240    -0.2710 c5         1 DQJ       0.095700
     11 C17         -5.8950    -0.7790     0.4230 cx         1 DQJ      -0.246700
     12 C18         -7.1830    -0.6320    -0.3630 cx         1 DQJ      -0.097400
     13 C19         -6.7680     0.4470     0.6080 cx         1 DQJ      -0.097400
     14 C21         -1.4780    -0.7750     0.1450 c5         1 DQJ       0.079000
     15 N09          4.0560     1.1510    -0.0180 na         1 DQJ       0.008800
     16 N10          2.6630     1.0930     0.0080 nd         1 DQJ      -0.511800
     17 N11         -0.1400    -0.1370     0.1780 n          1 DQJ      -0.405800
     18 O01          0.9660    -2.1340     0.2410 o          1 DQJ      -0.606100
     19 O20         -4.3320    -1.2160    -1.3460 o          1 DQJ      -0.604100
     20 H1           3.6340    -2.0510     0.2400 ha         1 DQJ       0.161000
     21 H2           6.2690    -1.4830     0.1510 hc         1 DQJ       0.070700
     22 H3           6.7080     1.1250    -1.3990 hc         1 DQJ       0.038700
     23 H4           7.8430    -0.2360    -1.2780 hc         1 DQJ       0.038700
     24 H5           6.2900    -0.4500    -2.1090 hc         1 DQJ       0.038700
     25 H6           6.3660    -0.1090     2.2200 hc         1 DQJ       0.038700
     26 H7           7.8890    -0.0320     1.3120 hc         1 DQJ       0.038700
     27 H8           6.7540     1.3340     1.2570 hc         1 DQJ       0.038700
     28 H9           0.0660     1.7870    -0.7310 h1         1 DQJ       0.059200
     29 H10          0.3970     1.7760     1.0250 h1         1 DQJ       0.059200
     30 H11         -1.9240     1.4940     1.6060 hc         1 DQJ       0.056200
     31 H12         -2.0770     2.5670     0.2070 hc         1 DQJ       0.056200
     32 H13         -2.3800     0.6040    -1.3560 h1         1 DQJ       0.086700
     33 H14         -5.8930    -1.5090     1.2280 hc         1 DQJ       0.081700
     34 H15         -7.1160    -0.4090    -1.4260 hc         1 DQJ       0.081700
     35 H16         -8.0230    -1.2670    -0.0870 hc         1 DQJ       0.081700
     36 H17         -7.3280     0.5370     1.5350 hc         1 DQJ       0.081700
     37 H18         -6.4260     1.3930     0.1910 hc         1 DQJ       0.081700
     38 H19         -1.7400    -1.1670     1.1380 h1         1 DQJ       0.066200
     39 H20         -1.5350    -1.5960    -0.5820 h1         1 DQJ       0.066200
     40 H21          4.5490     2.0400    -0.0980 hn         1 DQJ       0.370000
     41 H22         -4.0040     0.6410     1.1970 hn         1 DQJ       0.312500
     42 N15         -3.6920     0.2080     0.3360 ns         1 DQJ      -0.498900
     43 C16         -4.5800    -0.6320    -0.3000 c          1 DQJ       0.633100
@<TRIPOS>BOND
     1     1     2 1   
     2     1    17 1   
     3     1    18 2   
     4     2     3 1   
     5     2    16 2   
     6     3     4 2   
     7     3    20 1   
     8     4     5 1   
     9     4    15 1   
    10     5     6 1   
    11     5     7 1   
    12     5    21 1   
    13     6    22 1   
    14     6    23 1   
    15     6    24 1   
    16     7    25 1   
    17     7    26 1   
    18     7    27 1   
    19     8     9 1   
    20     8    17 1   
    21     8    28 1   
    22     8    29 1   
    23     9    10 1   
    24     9    30 1   
    25     9    31 1   
    26    10    14 1   
    27    10    32 1   
    28    10    42 1   
    29    11    12 1   
    30    11    13 1   
    31    11    33 1   
    32    11    43 1   
    33    12    13 1   
    34    12    34 1   
    35    12    35 1   
    36    13    36 1   
    37    13    37 1   
    38    14    17 1   
    39    14    38 1   
    40    14    39 1   
    41    15    16 1   
    42    15    40 1   
    43    19    43 2   
    44    41    42 1   
    45    42    43 1   
@<TRIPOS>SUBSTRUCTURE
     1 DQJ         1 TEMP              0 ****  ****    0 ROOT
