@<TRIPOS>MOLECULE
DQJ
   43    45     1     0     0
SMALL
abcg2


@<TRIPOS>ATOM
      1 C02          0.9680    -0.8450    -0.1810 c          1 DQJ       0.538600
      2 C03          2.3530    -0.3270    -0.1270 cc         1 DQJ       0.200500
      3 C04          3.5010    -1.1380    -0.0180 cc         1 DQJ      -0.169000
      4 C05          4.5600    -0.2630    -0.0520 cd         1 DQJ      -0.150300
      5 C06          6.0360    -0.4850     0.0440 c3         1 DQJ      -0.000400
      6 C07          6.7700     0.0710    -1.1760 c3         1 DQJ      -0.089100
      7 C08          6.5970     0.0960     1.3440 c3         1 DQJ      -0.089100
      8 C12         -0.0480     1.3810     0.4520 c5         1 DQJ       0.118000
      9 C13         -1.4630     1.6090     0.9580 c5         1 DQJ      -0.112400
     10 C14         -2.2970     0.7170     0.0490 c5         1 DQJ       0.095700
     11 C17         -5.9110    -0.1970     0.5470 cx         1 DQJ      -0.246700
     12 C18         -6.7930    -1.3240     0.0790 cx         1 DQJ      -0.097400
     13 C19         -7.2040     0.0800    -0.1740 cx         1 DQJ      -0.097400
     14 C21         -1.4260    -0.5340    -0.0920 c5         1 DQJ       0.079000
     15 N09          4.0050     0.9620    -0.1830 na         1 DQJ       0.008800
     16 N10          2.6850     0.9500    -0.2310 nd         1 DQJ      -0.511800
     17 N11         -0.0690    -0.0140     0.0070 n          1 DQJ      -0.405800
     18 O01          0.7970    -2.0420    -0.4040 o          1 DQJ      -0.606100
     19 O20         -4.5410    -0.1230    -1.4000 o          1 DQJ      -0.604100
     20 H1           3.5510    -2.2100     0.0760 ha         1 DQJ       0.161000
     21 H2           6.1800    -1.5680     0.0670 hc         1 DQJ       0.070700
     22 H3           6.6720     1.1560    -1.2460 hc         1 DQJ       0.038700
     23 H4           7.8350    -0.1550    -1.1100 hc         1 DQJ       0.038700
     24 H5           6.3900    -0.3610    -2.1020 hc         1 DQJ       0.038700
     25 H6           6.0990    -0.3280     2.2160 hc         1 DQJ       0.038700
     26 H7           7.6630    -0.1180     1.4260 hc         1 DQJ       0.038700
     27 H8           6.4760     1.1810     1.3830 hc         1 DQJ       0.038700
     28 H9           0.1830     2.0520    -0.3770 h1         1 DQJ       0.059200
     29 H10          0.7000     1.5410     1.2260 h1         1 DQJ       0.059200
     30 H11         -1.5540     1.2760     1.9960 hc         1 DQJ       0.056200
     31 H12         -1.7530     2.6580     0.9120 hc         1 DQJ       0.056200
     32 H13         -2.4000     1.1930    -0.9290 h1         1 DQJ       0.086700
     33 H14         -5.8950    -0.0010     1.6130 hc         1 DQJ       0.081700
     34 H15         -6.4410    -1.9100    -0.7610 hc         1 DQJ       0.081700
     35 H16         -7.3110    -1.8880     0.8420 hc         1 DQJ       0.081700
     36 H17         -8.0100     0.5000     0.4110 hc         1 DQJ       0.081700
     37 H18         -7.1330     0.4560    -1.1870 hc         1 DQJ       0.081700
     38 H19         -1.6380    -1.2420     0.7160 h1         1 DQJ       0.066200
     39 H20         -1.5900    -1.0470    -1.0400 h1         1 DQJ       0.066200
     40 H21          4.4870     1.8460    -0.2530 hn         1 DQJ       0.370000
     41 H22         -3.7380     0.5040     1.5710 hn         1 DQJ       0.312500
     42 N15         -3.6140     0.4610     0.5720 ns         1 DQJ      -0.498900
     43 C16         -4.6410     0.0420    -0.1900 c          1 DQJ       0.633100
@<TRIPOS>BOND
     1     1     2 1   
     2     1    17 1   
     3     1    18 2   
     4     2     3 1   
     5     2    16 2   
     6     3     4 2   
     7     3    20 1   
     8     4     5 1   
     9     4    15 1   
    10     5     6 1   
    11     5     7 1   
    12     5    21 1   
    13     6    22 1   
    14     6    23 1   
    15     6    24 1   
    16     7    25 1   
    17     7    26 1   
    18     7    27 1   
    19     8     9 1   
    20     8    17 1   
    21     8    28 1   
    22     8    29 1   
    23     9    10 1   
    24     9    30 1   
    25     9    31 1   
    26    10    14 1   
    27    10    32 1   
    28    10    42 1   
    29    11    12 1   
    30    11    13 1   
    31    11    33 1   
    32    11    43 1   
    33    12    13 1   
    34    12    34 1   
    35    12    35 1   
    36    13    36 1   
    37    13    37 1   
    38    14    17 1   
    39    14    38 1   
    40    14    39 1   
    41    15    16 1   
    42    15    40 1   
    43    19    43 2   
    44    41    42 1   
    45    42    43 1   
@<TRIPOS>SUBSTRUCTURE
     1 DQJ         1 TEMP              0 ****  ****    0 ROOT
