@<TRIPOS>MOLECULE
DQK
   50    51     1     0     0
SMALL
No Charge or Current Charge


@<TRIPOS>ATOM
      1 CA           5.3050     2.8150    -0.4340 c3         1 DQK       0.042500
      2 C            6.8610     2.7780    -0.2210 c          1 DQK       0.575900
      3 N            4.8230     3.4160    -1.7260 n8         1 DQK      -0.983200
      4 O            7.6870     2.9760    -1.1100 o          1 DQK      -0.501100
      5 CB           4.6910     1.4040    -0.2340 c3         1 DQK      -0.113400
      6 CAD          3.1480     1.3860    -0.0940 c3         1 DQK      -0.074400
      7 CAE          2.5860    -0.0260     0.1800 c3         1 DQK      -0.094400
      8 CAF          1.0520    -0.0390     0.3240 c3         1 DQK       0.105000
      9 NAG          0.5290    -1.3770     0.6040 ns         1 DQK      -0.511900
     10 CAJ          0.2890    -2.3420    -0.3490 c          1 DQK       0.599100
     11 OAN          0.5690    -2.1820    -1.5290 o          1 DQK      -0.626100
     12 CAK         -0.3060    -3.6490     0.1790 c3         1 DQK      -0.124400
     13 CAL         -1.7680    -3.8860    -0.3020 c3         1 DQK      -0.033700
     14 CAM         -2.1650    -5.3880    -0.2730 c          1 DQK       0.734000
     15 OAP         -2.7770    -5.8370    -1.2330 o          1 DQK      -0.711500
     16 OAO         -1.8250    -6.0730     0.6830 o          1 DQK      -0.711500
     17 SAQ         -2.9790    -2.8690     0.6910 ss         1 DQK      -0.247000
     18 CAR         -2.6560    -1.1740     0.2180 ca         1 DQK      -0.057000
     19 CAS         -2.4970    -0.2020     1.2200 ca         1 DQK      -0.098000
     20 CAT         -2.2060     1.1310     0.8760 ca         1 DQK      -0.035000
     21 CAX         -2.0180     2.1000     1.8800 ca         1 DQK      -0.096000
     22 CAY         -1.7130     3.4270     1.5310 ca         1 DQK      -0.128000
     23 CAZ         -1.5970     3.7900     0.1780 ca         1 DQK      -0.128000
     24 CBA         -1.7860     2.8270    -0.8280 ca         1 DQK      -0.096000
     25 CAU         -2.0900     1.4960    -0.4840 ca         1 DQK      -0.037000
     26 CAV         -2.2730     0.5270    -1.4870 ca         1 DQK      -0.122000
     27 CAW         -2.5560    -0.8050    -1.1370 ca         1 DQK      -0.067000
     28 H1           4.9280     3.4470     0.3830 h1         1 DQK       0.075700
     29 H2           7.1890     2.5560     0.8190 h4         1 DQK      -0.019800
     30 H3           5.2100     2.8830    -2.5150 hn         1 DQK       0.404000
     31 H4           3.8100     3.2730    -1.8100 hn         1 DQK       0.404000
     32 H6           4.9920     0.7520    -1.0640 hc         1 DQK       0.047200
     33 H7           5.1200     0.9640     0.6760 hc         1 DQK       0.047200
     34 H8           2.8520     2.0550     0.7240 hc         1 DQK       0.040700
     35 H9           2.6870     1.7760    -1.0100 hc         1 DQK       0.040700
     36 H10          2.8790    -0.6960    -0.6370 hc         1 DQK       0.043200
     37 H11          3.0350    -0.4230     1.0990 hc         1 DQK       0.043200
     38 H12          0.7560     0.6270     1.1460 h1         1 DQK       0.045700
     39 H13          0.5910     0.3400    -0.5970 h1         1 DQK       0.045700
     40 H14          0.2590    -1.5980     1.5540 hn         1 DQK       0.312500
     41 H15          0.3150    -4.4620    -0.2140 hc         1 DQK       0.071200
     42 H16         -0.2790    -3.6740     1.2750 hc         1 DQK       0.071200
     43 H17         -1.8410    -3.5840    -1.3540 h1         1 DQK       0.076700
     44 H19         -2.5810    -0.4890     2.2660 ha         1 DQK       0.113000
     45 H20         -2.1030     1.8250     2.9290 ha         1 DQK       0.103000
     46 H21         -1.5660     4.1730     2.3090 ha         1 DQK       0.097000
     47 H22         -1.3610     4.8170    -0.0900 ha         1 DQK       0.097000
     48 H23         -1.6940     3.1160    -1.8730 ha         1 DQK       0.104000
     49 H24         -2.1900     0.8010    -2.5360 ha         1 DQK       0.106000
     50 H25         -2.6960    -1.5460    -1.9210 ha         1 DQK       0.172000
@<TRIPOS>BOND
     1     1     2 1   
     2     1     3 1   
     3     1     5 1   
     4     1    28 1   
     5     2     4 2   
     6     2    29 1   
     7     3    30 1   
     8     3    31 1   
     9     5     6 1   
    10     5    32 1   
    11     5    33 1   
    12     6     7 1   
    13     6    34 1   
    14     6    35 1   
    15     7     8 1   
    16     7    36 1   
    17     7    37 1   
    18     8     9 1   
    19     8    38 1   
    20     8    39 1   
    21     9    10 1   
    22     9    40 1   
    23    10    11 2   
    24    10    12 1   
    25    12    13 1   
    26    12    41 1   
    27    12    42 1   
    28    13    14 1   
    29    13    17 1   
    30    13    43 1   
    31    14    15 1   
    32    14    16 1   
    33    17    18 1   
    34    18    19 ar  
    35    18    27 ar  
    36    19    20 ar  
    37    19    44 1   
    38    20    21 ar  
    39    20    25 ar  
    40    21    22 ar  
    41    21    45 1   
    42    22    23 ar  
    43    22    46 1   
    44    23    24 ar  
    45    23    47 1   
    46    24    25 ar  
    47    24    48 1   
    48    25    26 ar  
    49    26    27 ar  
    50    26    49 1   
    51    27    50 1   
@<TRIPOS>SUBSTRUCTURE
     1 DQK         1 TEMP              0 ****  ****    0 ROOT
