@<TRIPOS>MOLECULE
DQK
   50    51     1     0     0
SMALL
abcg2


@<TRIPOS>ATOM
      1 CA           6.7000     2.2560     0.5360 c3         1 DQK       0.042500
      2 C            7.9710     2.1260     1.3290 c          1 DQK       0.575900
      3 N            6.9700     2.6900    -0.8150 n8         1 DQK      -0.983200
      4 O            9.0840     2.2620     0.8860 o          1 DQK      -0.501100
      5 CB           5.9130     0.9400     0.6880 c3         1 DQK      -0.113400
      6 CAD          4.5190     1.0110     0.0780 c3         1 DQK      -0.074400
      7 CAE          3.7620    -0.3040     0.2080 c3         1 DQK      -0.094400
      8 CAF          2.3800    -0.2210    -0.4200 c3         1 DQK       0.105000
      9 NAG          1.6940    -1.4920    -0.3350 ns         1 DQK      -0.511900
     10 CAJ          0.6480    -1.8180    -1.1070 c          1 DQK       0.599100
     11 OAN          0.2090    -1.0740    -1.9760 o          1 DQK      -0.626100
     12 CAK          0.0520    -3.1870    -0.8590 c3         1 DQK      -0.124400
     13 CAL         -1.4440    -3.0960    -0.6030 c3         1 DQK      -0.033700
     14 CAM         -2.1630    -4.4610    -0.4820 c          1 DQK       0.734000
     15 OAP         -3.4060    -4.4150    -0.4230 o          1 DQK      -0.711500
     16 OAO         -1.4460    -5.4760    -0.4580 o          1 DQK      -0.711500
     17 SAQ         -1.7150    -2.1160     0.9260 ss         1 DQK      -0.247000
     18 CAR         -2.7680    -0.8060     0.3920 ca         1 DQK      -0.057000
     19 CAS         -2.4690     0.4800     0.7620 ca         1 DQK      -0.098000
     20 CAT         -3.3340     1.5480     0.4280 ca         1 DQK      -0.035000
     21 CAX         -3.0500     2.8820     0.8050 ca         1 DQK      -0.096000
     22 CAY         -3.8990     3.9000     0.4610 ca         1 DQK      -0.128000
     23 CAZ         -5.0710     3.6320    -0.2780 ca         1 DQK      -0.128000
     24 CBA         -5.3680     2.3520    -0.6600 ca         1 DQK      -0.096000
     25 CAU         -4.5110     1.2810    -0.3190 ca         1 DQK      -0.037000
     26 CAV         -4.7860    -0.0560    -0.6960 ca         1 DQK      -0.122000
     27 CAW         -3.9500    -1.0760    -0.3410 ca         1 DQK      -0.067000
     28 H1           6.1220     3.0390     1.0440 h1         1 DQK       0.075700
     29 H2           7.8100     1.8700     2.3920 h4         1 DQK      -0.019800
     30 H3           7.3940     1.9380    -1.3440 hn         1 DQK       0.404000
     31 H4           6.1030     2.9140    -1.2840 hn         1 DQK       0.404000
     32 H6           6.4810     0.1290     0.2190 hc         1 DQK       0.047200
     33 H7           5.8280     0.6870     1.7500 hc         1 DQK       0.047200
     34 H8           3.9530     1.8140     0.5610 hc         1 DQK       0.040700
     35 H9           4.5920     1.2740    -0.9810 hc         1 DQK       0.040700
     36 H10          4.3300    -1.1040    -0.2760 hc         1 DQK       0.043200
     37 H11          3.6740    -0.5750     1.2650 hc         1 DQK       0.043200
     38 H12          1.7950     0.5650     0.0710 h1         1 DQK       0.045700
     39 H13          2.4690     0.0610    -1.4700 h1         1 DQK       0.045700
     40 H14          1.9520    -2.1150     0.4130 hn         1 DQK       0.312500
     41 H15          0.2210    -3.7930    -1.7530 hc         1 DQK       0.071200
     42 H16          0.5500    -3.7040    -0.0370 hc         1 DQK       0.071200
     43 H17         -1.9140    -2.5270    -1.4090 h1         1 DQK       0.076700
     44 H19         -1.5580     0.6940     1.3090 ha         1 DQK       0.113000
     45 H20         -2.1500     3.0890     1.3710 ha         1 DQK       0.103000
     46 H21         -3.6730     4.9160     0.7550 ha         1 DQK       0.097000
     47 H22         -5.7340     4.4460    -0.5430 ha         1 DQK       0.097000
     48 H23         -6.2660     2.1430    -1.2300 ha         1 DQK       0.104000
     49 H24         -5.6860    -0.2680    -1.2610 ha         1 DQK       0.106000
     50 H25         -4.1760    -2.1000    -0.6100 ha         1 DQK       0.172000
@<TRIPOS>BOND
     1     1     2 1   
     2     1     3 1   
     3     1     5 1   
     4     1    28 1   
     5     2     4 2   
     6     2    29 1   
     7     3    30 1   
     8     3    31 1   
     9     5     6 1   
    10     5    32 1   
    11     5    33 1   
    12     6     7 1   
    13     6    34 1   
    14     6    35 1   
    15     7     8 1   
    16     7    36 1   
    17     7    37 1   
    18     8     9 1   
    19     8    38 1   
    20     8    39 1   
    21     9    10 1   
    22     9    40 1   
    23    10    11 2   
    24    10    12 1   
    25    12    13 1   
    26    12    41 1   
    27    12    42 1   
    28    13    14 1   
    29    13    17 1   
    30    13    43 1   
    31    14    15 1   
    32    14    16 1   
    33    17    18 1   
    34    18    19 ar  
    35    18    27 ar  
    36    19    20 ar  
    37    19    44 1   
    38    20    21 ar  
    39    20    25 ar  
    40    21    22 ar  
    41    21    45 1   
    42    22    23 ar  
    43    22    46 1   
    44    23    24 ar  
    45    23    47 1   
    46    24    25 ar  
    47    24    48 1   
    48    25    26 ar  
    49    26    27 ar  
    50    26    49 1   
    51    27    50 1   
@<TRIPOS>SUBSTRUCTURE
     1 DQK         1 TEMP              0 ****  ****    0 ROOT
