@<TRIPOS>MOLECULE
DQL
   18    19     1     0     0
SMALL
bcc


@<TRIPOS>ATOM
      1 CAD          8.9880     9.2450     2.7190 ca         1 DQL      -0.181000
      2 CAJ          8.4300     9.8610     3.8280 ca         1 DQL       0.197100
      3 OAB          7.3970     9.2830     4.4640 oh         1 DQL      -0.489100
      4 CAL          8.9610    11.0760     4.2720 ca         1 DQL       0.038400
      5 NAF          8.4910    11.7740     5.3570 nc         1 DQL      -0.646100
      6 CAI          9.1710    12.8590     5.5270 cd         1 DQL       0.640100
      7 NAA          8.9910    13.7360     6.5270 nv         1 DQL      -0.904800
      8 SAG         10.4670    13.1320     4.3580 ss         1 DQL      -0.152100
      9 CAK         10.0340    11.6370     3.5790 ca         1 DQL      -0.007100
     10 CAE         10.5950    11.0500     2.4550 ca         1 DQL      -0.107000
     11 CAH         10.0550     9.8390     2.0370 ca         1 DQL       0.081900
     12 SAC         10.8020     9.0600     0.6370 sh         1 DQL      -0.303700
     13 H1           8.5850     8.2960     2.3880 ha         1 DQL       0.150000
     14 H2           7.1280     9.8390     5.2080 ho         1 DQL       0.453000
     15 H3           9.3800    14.6610     6.4600 hn         1 DQL       0.434300
     16 H4           8.1350    13.6650     7.0540 hn         1 DQL       0.434300
     17 H5          11.4130    11.5170     1.9220 ha         1 DQL       0.156000
     18 H6           9.8300     8.1820     0.3710 hs         1 DQL       0.206800
@<TRIPOS>BOND
     1     1     2 ar  
     2     1    11 ar  
     3     1    13 1   
     4     2     3 1   
     5     2     4 ar  
     6     3    14 1   
     7     4     5 1   
     8     4     9 ar  
     9     5     6 2   
    10     6     7 1   
    11     6     8 1   
    12     7    15 1   
    13     7    16 1   
    14     8     9 1   
    15     9    10 ar  
    16    10    11 ar  
    17    10    17 1   
    18    11    12 1   
    19    12    18 1   
@<TRIPOS>SUBSTRUCTURE
     1 DQL         1 TEMP              0 ****  ****    0 ROOT
