@<TRIPOS>MOLECULE
DQL
   18    19     1     0     0
SMALL
No Charge or Current Charge


@<TRIPOS>ATOM
      1 CAD          8.9640     9.2670     2.6750 ca         1 DQL      -0.163000
      2 CAJ          8.4270     9.8860     3.8190 ca         1 DQL       0.197100
      3 OAB          7.3820     9.3240     4.4870 oh         1 DQL      -0.528100
      4 CAL          8.9690    11.0990     4.2860 ca         1 DQL       0.038400
      5 NAF          8.4970    11.7830     5.4130 nc         1 DQL      -0.646100
      6 CAI          9.2630    12.8600     5.5180 cd         1 DQL       0.640100
      7 NAA          8.9730    13.6780     6.5440 nv         1 DQL      -1.015200
      8 SAG         10.5610    13.1680     4.3380 ss         1 DQL      -0.025200
      9 CAK         10.0330    11.6660     3.6010 ca         1 DQL      -0.134000
     10 CAE         10.5870    11.0690     2.4580 ca         1 DQL      -0.089000
     11 CAH         10.0480     9.8550     1.9880 ca         1 DQL      -0.045000
     12 SAC         10.7320     9.0750     0.5380 sh         1 DQL      -0.176800
     13 H1           8.5370     8.3310     2.3250 ha         1 DQL       0.132000
     14 H2           7.1980     9.9370     5.2350 ho         1 DQL       0.492000
     15 H3           9.2900    14.6390     6.4780 hn         1 DQL       0.489500
     16 H4           8.0740    13.5280     6.9840 hn         1 DQL       0.489500
     17 H5          11.4220    11.5380     1.9420 ha         1 DQL       0.138000
     18 H6           9.8950     8.0100     0.5340 hs         1 DQL       0.206800
@<TRIPOS>BOND
     1     1     2 ar  
     2     1    11 ar  
     3     1    13 1   
     4     2     3 1   
     5     2     4 ar  
     6     3    14 1   
     7     4     5 1   
     8     4     9 ar  
     9     5     6 2   
    10     6     7 1   
    11     6     8 1   
    12     7    15 1   
    13     7    16 1   
    14     8     9 1   
    15     9    10 ar  
    16    10    11 ar  
    17    10    17 1   
    18    11    12 1   
    19    12    18 1   
@<TRIPOS>SUBSTRUCTURE
     1 DQL         1 TEMP              0 ****  ****    0 ROOT
