@<TRIPOS>MOLECULE
DQM
   52    53     1     0     0
SMALL
No Charge or Current Charge


@<TRIPOS>ATOM
      1 OAX          5.3880    -0.3160     2.4550 o          1 DQM      -0.737500
      2 CAJ          5.7470    -0.4760     1.2960 c          1 DQM       0.745000
      3 OAD          6.5810    -1.3080     0.9640 o          1 DQM      -0.737500
      4 CAX          5.1710     0.4540     0.2070 c3         1 DQM      -0.210700
      5 CAT          5.5980     1.9180     0.5210 c3         1 DQM       0.179300
      6 CAA          7.1210     2.1010     0.7280 c3         1 DQM      -0.071100
      7 OAI          5.2050     2.7800    -0.5460 oh         1 DQM      -0.709000
      8 CAY          3.6260     0.2380     0.0890 c5         1 DQM       0.107500
      9 CAU          2.8750     0.8660    -1.1460 c5         1 DQM      -0.085700
     10 CAB          3.5590     0.6780    -2.5290 c3         1 DQM      -0.075100
     11 NAN          3.2790    -1.2050     0.0010 n2         1 DQM      -0.459900
     12 CAS          2.1250    -1.2710    -0.6080 ce         1 DQM       0.280300
     13 CAR          1.5520    -2.5240    -1.2920 c          1 DQM       0.639700
     14 OAE          2.0920    -3.6090    -1.0980 o          1 DQM      -0.719000
     15 OAH          0.5630    -2.4250    -2.0100 o          1 DQM      -0.719000
     16 CAZ          1.5410     0.0750    -1.0590 c5         1 DQM       0.036000
     17 SAQ          0.4970     0.8540     0.3050 ss         1 DQM      -0.534000
     18 CAW         -0.9880    -0.2490     0.0080 c5         1 DQM       0.079300
     19 CAM         -1.7460     0.1900    -1.2920 c5         1 DQM       0.146800
     20 NAO         -3.1390     0.5270    -0.8730 n7         1 DQM      -0.850400
     21 CAV         -3.3380    -0.2570     0.3770 c5         1 DQM       0.127500
     22 CAK         -2.0220     0.0440     1.1290 c5         1 DQM      -0.098400
     23 CAL         -4.6280     0.1390     1.1520 c3         1 DQM       0.211800
     24 NAP         -5.8220    -0.0940     0.3230 n7         1 DQM      -0.871300
     25 SBA         -7.2500     0.5240     0.7810 s6         1 DQM       1.244200
     26 OAF         -8.1480    -0.5480     1.1840 o          1 DQM      -0.568000
     27 OAG         -7.0400     1.7300     1.5690 o          1 DQM      -0.568000
     28 NAC         -7.7500     1.0230    -0.6560 n8         1 DQM      -1.032100
     29 H2           5.6410     0.1600    -0.7390 hc         1 DQM       0.046700
     30 H3           5.0940     2.2310     1.4460 h1         1 DQM       0.037700
     31 H4           7.6810     1.7370    -0.1420 hc         1 DQM       0.026367
     32 H5           7.3650     3.1600     0.8740 hc         1 DQM       0.026367
     33 H6           7.4700     1.5590     1.6140 hc         1 DQM       0.026367
     34 H7           4.4190     2.3610    -0.9540 ho         1 DQM       0.429000
     35 H8           3.1890     0.6290     1.0190 h1         1 DQM       0.066700
     36 H9           2.7010     1.9410    -1.0220 hc         1 DQM       0.029700
     37 H10          2.9100     1.0400    -3.3350 hc         1 DQM       0.030367
     38 H11          4.5010     1.2330    -2.6020 hc         1 DQM       0.030367
     39 H12          3.7820    -0.3760    -2.7340 hc         1 DQM       0.030367
     40 H14          1.0030     0.0470    -2.0150 h1         1 DQM       0.079700
     41 H15         -0.7200    -1.3140    -0.0190 h1         1 DQM       0.121700
     42 H16         -1.2640     1.0450    -1.7900 h1         1 DQM       0.081700
     43 H17         -1.7490    -0.6410    -2.0130 h1         1 DQM       0.081700
     44 H18         -3.1550     1.5220    -0.6180 hn         1 DQM       0.390000
     45 H20         -3.4080    -1.3320     0.1480 h1         1 DQM       0.078700
     46 H21         -1.8780    -0.5950     2.0070 hc         1 DQM       0.051700
     47 H22         -1.9860     1.0870     1.4670 hc         1 DQM       0.051700
     48 H23         -4.6830    -0.4430     2.0820 h1         1 DQM       0.047700
     49 H24         -4.5400     1.1990     1.4270 h1         1 DQM       0.047700
     50 H25         -5.7260     0.4170    -0.5520 hn         1 DQM       0.512000
     51 H26         -8.5300     0.3860    -0.8000 hn         1 DQM       0.462500
     52 H27         -8.2330     1.8800    -0.3970 hn         1 DQM       0.462500
@<TRIPOS>BOND
     1     1     2 1   
     2     2     3 1   
     3     2     4 1   
     4     4     5 1   
     5     4     8 1   
     6     4    29 1   
     7     5     6 1   
     8     5     7 1   
     9     5    30 1   
    10     6    31 1   
    11     6    32 1   
    12     6    33 1   
    13     7    34 1   
    14     8     9 1   
    15     8    11 1   
    16     8    35 1   
    17     9    10 1   
    18     9    16 1   
    19     9    36 1   
    20    10    37 1   
    21    10    38 1   
    22    10    39 1   
    23    11    12 2   
    24    12    13 1   
    25    12    16 1   
    26    13    14 1   
    27    13    15 1   
    28    16    17 1   
    29    16    40 1   
    30    17    18 1   
    31    18    19 1   
    32    18    22 1   
    33    18    41 1   
    34    19    20 1   
    35    19    42 1   
    36    19    43 1   
    37    20    21 1   
    38    20    44 1   
    39    21    22 1   
    40    21    23 1   
    41    21    45 1   
    42    22    46 1   
    43    22    47 1   
    44    23    24 1   
    45    23    48 1   
    46    23    49 1   
    47    24    25 1   
    48    24    50 1   
    49    25    26 2   
    50    25    27 2   
    51    25    28 1   
    52    28    51 1   
    53    28    52 1   
@<TRIPOS>SUBSTRUCTURE
     1 DQM         1 TEMP              0 ****  ****    0 ROOT
