@<TRIPOS>MOLECULE
DQM
   52    53     1     0     0
SMALL
abcg2


@<TRIPOS>ATOM
      1 OAX          5.5090    -0.3690     2.1280 o          1 DQM      -0.737500
      2 CAJ          5.7860    -0.3600     0.9110 c          1 DQM       0.745000
      3 OAD          6.6260    -1.0810     0.3400 o          1 DQM      -0.737500
      4 CAX          5.0250     0.6740     0.0480 c3         1 DQM      -0.210700
      5 CAT          5.3730     2.0820     0.5550 c3         1 DQM       0.179300
      6 CAA          6.8570     2.3770     0.4180 c3         1 DQM      -0.071100
      7 OAI          4.6960     3.1230    -0.1360 oh         1 DQM      -0.709000
      8 CAY          3.5260     0.3590     0.1050 c5         1 DQM       0.107500
      9 CAU          2.5940     1.0030    -0.9550 c5         1 DQM      -0.085700
     10 CAB          3.2240     1.1800    -2.3330 c3         1 DQM      -0.075100
     11 NAN          3.3040    -1.0800    -0.0330 n2         1 DQM      -0.459900
     12 CAS          2.2120    -1.2900    -0.6410 ce         1 DQM       0.280300
     13 CAR          1.7260    -2.6890    -0.9960 c          1 DQM       0.639700
     14 OAE          2.2470    -3.6420    -0.3960 o          1 DQM      -0.719000
     15 OAH          0.8550    -2.7280    -1.8870 o          1 DQM      -0.719000
     16 CAZ          1.4690    -0.0400    -1.0310 c5         1 DQM       0.036000
     17 SAQ          0.2060     0.4070     0.2140 ss         1 DQM      -0.534000
     18 CAW         -1.0070    -0.9470     0.1730 c5         1 DQM       0.079300
     19 CAM         -1.7760    -1.0450    -1.1620 c5         1 DQM       0.146800
     20 NAO         -3.0340    -0.3380    -0.9750 n7         1 DQM      -0.850400
     21 CAV         -3.4020    -0.6670     0.3970 c5         1 DQM       0.127500
     22 CAK         -2.1000    -0.6090     1.2100 c5         1 DQM      -0.098400
     23 CAL         -4.5020     0.2320     0.9200 c3         1 DQM       0.211800
     24 NAP         -5.6860     0.0290     0.0870 n7         1 DQM      -0.871300
     25 SBA         -7.0530     0.8790     0.3650 s6         1 DQM       1.244200
     26 OAF         -8.1370     0.2610    -0.3730 o          1 DQM      -0.568000
     27 OAG         -7.1710     1.0120     1.8080 o          1 DQM      -0.568000
     28 NAC         -6.7880     2.3340    -0.3850 n8         1 DQM      -1.032100
     29 H2           5.3690     0.5800    -0.9870 hc         1 DQM       0.046700
     30 H3           5.1070     2.1200     1.6200 h1         1 DQM       0.037700
     31 H4           7.1800     2.2960    -0.6220 hc         1 DQM       0.026367
     32 H5           7.0840     3.3840     0.7690 hc         1 DQM       0.026367
     33 H6           7.4550     1.6840     1.0070 hc         1 DQM       0.026367
     34 H7           3.7670     3.0980     0.1080 ho         1 DQM       0.429000
     35 H8           3.1650     0.6350     1.1070 h1         1 DQM       0.066700
     36 H9           2.2070     1.9710    -0.6230 hc         1 DQM       0.029700
     37 H10          2.4750     1.5280    -3.0440 hc         1 DQM       0.030367
     38 H11          4.0280     1.9130    -2.3060 hc         1 DQM       0.030367
     39 H12          3.6360     0.2440    -2.7160 hc         1 DQM       0.030367
     40 H14          0.9990    -0.0980    -2.0130 h1         1 DQM       0.079700
     41 H15         -0.5120    -1.8840     0.4190 h1         1 DQM       0.121700
     42 H16         -1.2280    -0.6470    -2.0130 h1         1 DQM       0.081700
     43 H17         -1.9830    -2.0970    -1.3740 h1         1 DQM       0.081700
     44 H18         -2.8460     0.6600    -1.0260 hn         1 DQM       0.390000
     45 H20         -3.7720    -1.6990     0.3990 h1         1 DQM       0.078700
     46 H21         -2.1010    -1.3090     2.0460 hc         1 DQM       0.051700
     47 H22         -1.9660     0.3930     1.6290 hc         1 DQM       0.051700
     48 H23         -4.7340    -0.0380     1.9490 h1         1 DQM       0.047700
     49 H24         -4.1540     1.2730     0.9150 h1         1 DQM       0.047700
     50 H25         -5.4690    -0.0490    -0.9030 hn         1 DQM       0.512000
     51 H26         -7.6520     2.8580    -0.4900 hn         1 DQM       0.462500
     52 H27         -6.1040     2.9060     0.1020 hn         1 DQM       0.462500
@<TRIPOS>BOND
     1     1     2 1   
     2     2     3 1   
     3     2     4 1   
     4     4     5 1   
     5     4     8 1   
     6     4    29 1   
     7     5     6 1   
     8     5     7 1   
     9     5    30 1   
    10     6    31 1   
    11     6    32 1   
    12     6    33 1   
    13     7    34 1   
    14     8     9 1   
    15     8    11 1   
    16     8    35 1   
    17     9    10 1   
    18     9    16 1   
    19     9    36 1   
    20    10    37 1   
    21    10    38 1   
    22    10    39 1   
    23    11    12 2   
    24    12    13 1   
    25    12    16 1   
    26    13    14 1   
    27    13    15 1   
    28    16    17 1   
    29    16    40 1   
    30    17    18 1   
    31    18    19 1   
    32    18    22 1   
    33    18    41 1   
    34    19    20 1   
    35    19    42 1   
    36    19    43 1   
    37    20    21 1   
    38    20    44 1   
    39    21    22 1   
    40    21    23 1   
    41    21    45 1   
    42    22    46 1   
    43    22    47 1   
    44    23    24 1   
    45    23    48 1   
    46    23    49 1   
    47    24    25 1   
    48    24    50 1   
    49    25    26 2   
    50    25    27 2   
    51    25    28 1   
    52    28    51 1   
    53    28    52 1   
@<TRIPOS>SUBSTRUCTURE
     1 DQM         1 TEMP              0 ****  ****    0 ROOT
