@<TRIPOS>MOLECULE
DQN
   24    24     1     0     0
SMALL
No Charge or Current Charge


@<TRIPOS>ATOM
      1 C1           1.4700     0.1430     0.0080 c          1 DQN       0.561000
      2 O1           2.6910     0.2730     0.0090 o          1 DQN      -0.500600
      3 C2           0.6970     0.0620     1.2840 cc         1 DQN      -0.139400
      4 C2M          1.5370     0.1140     2.5530 c3         1 DQN      -0.056900
      5 C3          -0.6890    -0.0430     1.2780 cd         1 DQN      -0.139400
      6 C3M         -1.5220    -0.0950     2.5530 c3         1 DQN      -0.056900
      7 C4          -1.4580    -0.1210    -0.0060 c          1 DQN       0.561000
      8 O4          -2.6780    -0.2510    -0.0070 o          1 DQN      -0.500600
      9 C5          -0.6850    -0.0400    -1.2820 cc         1 DQN      -0.139400
     10 C5M         -1.5250    -0.0910    -2.5510 c3         1 DQN      -0.056900
     11 C6           0.7010     0.0650    -1.2760 cd         1 DQN      -0.139400
     12 C6M          1.5340     0.1180    -2.5510 c3         1 DQN      -0.056900
     13 H2M1         2.5100    -0.3770     2.4280 hc         1 DQN       0.055533
     14 H2M2         1.7200     1.1520     2.8560 hc         1 DQN       0.055533
     15 H2M3         1.0490    -0.3990     3.3890 hc         1 DQN       0.055533
     16 H3M1        -2.5410     0.2820     2.4140 hc         1 DQN       0.055533
     17 H3M2        -1.5960    -1.1230     2.9290 hc         1 DQN       0.055533
     18 H3M3        -1.0840     0.5200     3.3480 hc         1 DQN       0.055533
     19 H5M1        -2.4980     0.3990    -2.4260 hc         1 DQN       0.055533
     20 H5M2        -1.0370     0.4220    -3.3860 hc         1 DQN       0.055533
     21 H5M3        -1.7070    -1.1290    -2.8540 hc         1 DQN       0.055533
     22 H6M1         2.5530    -0.2610    -2.4120 hc         1 DQN       0.055533
     23 H6M2         1.0960    -0.4970    -3.3460 hc         1 DQN       0.055533
     24 H6M3         1.6090     1.1450    -2.9270 hc         1 DQN       0.055533
@<TRIPOS>BOND
     1     1     2 2   
     2     1     3 1   
     3     1    11 1   
     4     3     4 1   
     5     3     5 2   
     6     4    13 1   
     7     4    14 1   
     8     4    15 1   
     9     5     6 1   
    10     5     7 1   
    11     6    16 1   
    12     6    17 1   
    13     6    18 1   
    14     7     8 2   
    15     7     9 1   
    16     9    10 1   
    17     9    11 2   
    18    10    19 1   
    19    10    20 1   
    20    10    21 1   
    21    11    12 1   
    22    12    22 1   
    23    12    23 1   
    24    12    24 1   
@<TRIPOS>SUBSTRUCTURE
     1 DQN         1 TEMP              0 ****  ****    0 ROOT
