@<TRIPOS>MOLECULE
DQN
   24    24     1     0     0
SMALL
abcg2


@<TRIPOS>ATOM
      1 C1           1.4250     0.0060     0.0000 c          1 DQN       0.561000
      2 O1           2.6400    -0.0040    -0.0000 o          1 DQN      -0.500600
      3 C2           0.6780     0.0140     1.2840 cc         1 DQN      -0.139400
      4 C2M          1.4630     0.0230     2.5560 c3         1 DQN      -0.056900
      5 C3          -0.6650     0.0100     1.2850 cd         1 DQN      -0.139400
      6 C3M         -1.4480     0.0160     2.5580 c3         1 DQN      -0.056900
      7 C4          -1.4120    -0.0070     0.0020 c          1 DQN       0.561000
      8 O4          -2.6280    -0.0350     0.0030 o          1 DQN      -0.500600
      9 C5          -0.6660     0.0090    -1.2820 cc         1 DQN      -0.139400
     10 C5M         -1.4510     0.0100    -2.5540 c3         1 DQN      -0.056900
     11 C6           0.6770     0.0100    -1.2830 cd         1 DQN      -0.139400
     12 C6M          1.4600     0.0140    -2.5560 c3         1 DQN      -0.056900
     13 H2M1         2.5340     0.0270     2.3770 hc         1 DQN       0.055533
     14 H2M2         1.2190     0.9010     3.1570 hc         1 DQN       0.055533
     15 H2M3         1.2280    -0.8510     3.1660 hc         1 DQN       0.055533
     16 H3M1        -2.5190     0.0490     2.3810 hc         1 DQN       0.055533
     17 H3M2        -1.2340    -0.8750     3.1520 hc         1 DQN       0.055533
     18 H3M3        -1.1810     0.8760     3.1740 hc         1 DQN       0.055533
     19 H5M1        -2.5190     0.0960    -2.3780 hc         1 DQN       0.055533
     20 H5M2        -1.1470     0.8370    -3.1980 hc         1 DQN       0.055533
     21 H5M3        -1.2780    -0.9080    -3.1190 hc         1 DQN       0.055533
     22 H6M1         2.5310     0.0030    -2.3790 hc         1 DQN       0.055533
     23 H6M2         1.2120    -0.8540    -3.1690 hc         1 DQN       0.055533
     24 H6M3         1.2280     0.8990    -3.1520 hc         1 DQN       0.055533
@<TRIPOS>BOND
     1     1     2 2   
     2     1     3 1   
     3     1    11 1   
     4     3     4 1   
     5     3     5 2   
     6     4    13 1   
     7     4    14 1   
     8     4    15 1   
     9     5     6 1   
    10     5     7 1   
    11     6    16 1   
    12     6    17 1   
    13     6    18 1   
    14     7     8 2   
    15     7     9 1   
    16     9    10 1   
    17     9    11 2   
    18    10    19 1   
    19    10    20 1   
    20    10    21 1   
    21    11    12 1   
    22    12    22 1   
    23    12    23 1   
    24    12    24 1   
@<TRIPOS>SUBSTRUCTURE
     1 DQN         1 TEMP              0 ****  ****    0 ROOT
