@<TRIPOS>MOLECULE
DQO
   53    57     1     0     0
SMALL
abcg2


@<TRIPOS>ATOM
      1 C1           0.9330     0.1490    -0.8800 ca         1 DQO      -0.161300
      2 C2           0.0040     0.0690    -1.9100 cp         1 DQO       0.035000
      3 C3          -1.3480    -0.1240    -1.6460 ca         1 DQO      -0.183000
      4 C4          -1.8110    -0.2620    -0.3340 ca         1 DQO       0.342000
      5 C5          -0.8670    -0.1970     0.7010 ca         1 DQO      -0.196000
      6 C6           0.4730     0.0170     0.4290 ca         1 DQO       0.045000
      7 N9          -3.1470    -0.4920    -0.0380 nh         1 DQO      -0.791400
      8 C10          0.4390     0.2570    -3.3140 cp         1 DQO      -0.105000
      9 N11          1.4080     0.0940     1.4750 n          1 DQO      -0.061000
     10 C12          2.7730    -0.0650     1.2800 c          1 DQO       0.623000
     11 N13          3.1600    -0.1420    -0.0080 ns         1 DQO      -0.491900
     12 C14          2.3910     0.4050    -1.1070 c6         1 DQO       0.166300
     13 O18          3.5310    -0.1600     2.2300 o          1 DQO      -0.566000
     14 C19          0.9670     0.2340     2.8030 ca         1 DQO      -0.031000
     15 C20          0.8690     1.4960    -3.7830 ca         1 DQO      -0.051000
     16 C21          1.2700     1.6830    -5.0970 ca         1 DQO      -0.173000
     17 C22          1.2360     0.5960    -5.9500 ca         1 DQO       0.203000
     18 C23          0.8210    -0.6550    -5.5390 ca         1 DQO      -0.204000
     19 C24          0.4290    -0.7930    -4.2210 ca         1 DQO       0.214000
     20 C28          0.7790    -0.8700     3.6300 ca         1 DQO       0.135000
     21 C29          0.3210    -0.7290     4.9290 ca         1 DQO      -0.105000
     22 C30          0.0410     0.5400     5.4110 ca         1 DQO      -0.089000
     23 C31          0.2130     1.6590     4.6110 ca         1 DQO      -0.105000
     24 C32          0.6760     1.4950     3.3160 ca         1 DQO       0.135000
     25 F36          0.0350    -2.0010    -3.8040 f          1 DQO      -0.163000
     26 F37          1.6180     0.7540    -7.2230 f          1 DQO      -0.170000
     27 CL38         0.8990     2.8730     2.3070 cl         1 DQO      -0.171500
     28 CL39         1.1090    -2.4400     3.0040 cl         1 DQO      -0.171500
     29 C40         -4.0760    -0.6530    -1.1430 c6         1 DQO       0.200300
     30 C41         -5.3760    -1.2710    -0.6600 c6         1 DQO       0.149300
     31 N42         -5.9490    -0.4590     0.3940 n7         1 DQO      -0.859400
     32 C43         -5.0380    -0.3980     1.5180 c6         1 DQO       0.149300
     33 C44         -3.7340     0.2390     1.0800 c6         1 DQO       0.200300
     34 HC3         -2.0330    -0.1220    -2.4810 ha         1 DQO       0.122000
     35 HC5         -1.1830    -0.3450     1.7230 ha         1 DQO       0.128000
     36 H13          4.1590    -0.1930    -0.1420 hn         1 DQO       0.326500
     37 H141         2.5850     1.4790    -1.2200 h1         1 DQO       0.048200
     38 H142         2.7310    -0.0730    -2.0250 h1         1 DQO       0.048200
     39 H20          0.8830     2.3370    -3.1020 ha         1 DQO       0.127000
     40 H21          1.5980     2.6510    -5.4480 ha         1 DQO       0.139000
     41 H23          0.8060    -1.4970    -6.2190 ha         1 DQO       0.152000
     42 H29          0.1840    -1.5990     5.5560 ha         1 DQO       0.135500
     43 H30         -0.3200     0.6590     6.4230 ha         1 DQO       0.123000
     44 H31         -0.0080     2.6470     4.9900 ha         1 DQO       0.135500
     45 H401        -4.2870     0.3080    -1.6350 h1         1 DQO       0.046950
     46 H402        -3.6410    -1.3190    -1.8880 h1         1 DQO       0.046950
     47 H411        -6.0690    -1.3220    -1.5010 h1         1 DQO       0.040450
     48 H412        -5.1730    -2.3050    -0.3380 h1         1 DQO       0.040450
     49 H421        -6.8330    -0.8540     0.6870 hn         1 DQO       0.415000
     50 H431        -5.4740     0.2120     2.3110 h1         1 DQO       0.040450
     51 H432        -4.8210    -1.3890     1.9470 h1         1 DQO       0.040450
     52 H441        -3.0530     0.2460     1.9290 h1         1 DQO       0.046950
     53 H442        -3.9150     1.2860     0.7980 h1         1 DQO       0.046950
@<TRIPOS>BOND
     1     1     2 ar  
     2     1     6 ar  
     3     1    12 1   
     4     2     3 ar  
     5     2     8 1   
     6     3     4 ar  
     7     3    34 1   
     8     4     5 ar  
     9     4     7 1   
    10     5     6 ar  
    11     5    35 1   
    12     6     9 1   
    13     7    29 1   
    14     7    33 1   
    15     8    15 ar  
    16     8    19 ar  
    17     9    10 1   
    18     9    14 1   
    19    10    11 1   
    20    10    13 2   
    21    11    12 1   
    22    11    36 1   
    23    12    37 1   
    24    12    38 1   
    25    14    20 ar  
    26    14    24 ar  
    27    15    16 ar  
    28    15    39 1   
    29    16    17 ar  
    30    16    40 1   
    31    17    18 ar  
    32    17    26 1   
    33    18    19 ar  
    34    18    41 1   
    35    19    25 1   
    36    20    21 ar  
    37    20    28 1   
    38    21    22 ar  
    39    21    42 1   
    40    22    23 ar  
    41    22    43 1   
    42    23    24 ar  
    43    23    44 1   
    44    24    27 1   
    45    29    30 1   
    46    29    45 1   
    47    29    46 1   
    48    30    31 1   
    49    30    47 1   
    50    30    48 1   
    51    31    32 1   
    52    31    49 1   
    53    32    33 1   
    54    32    50 1   
    55    32    51 1   
    56    33    52 1   
    57    33    53 1   
@<TRIPOS>SUBSTRUCTURE
     1 DQO         1 TEMP              0 ****  ****    0 ROOT
