@<TRIPOS>MOLECULE
DQO
   53    57     1     0     0
SMALL
No Charge or Current Charge


@<TRIPOS>ATOM
      1 C1           0.9800     0.1950    -0.8940 ca         1 DQO      -0.161300
      2 C2           0.0500     0.1760    -1.9680 cp         1 DQO       0.035000
      3 C3          -1.3230     0.0280    -1.6870 ca         1 DQO      -0.183000
      4 C4          -1.7880    -0.1020    -0.3730 ca         1 DQO       0.342000
      5 C5          -0.8610    -0.0850     0.6770 ca         1 DQO      -0.196000
      6 C6           0.5240     0.0750     0.4390 ca         1 DQO       0.045000
      7 N9          -3.1630    -0.2520    -0.0860 nh         1 DQO      -0.791400
      8 C10          0.4900     0.3070    -3.3870 cp         1 DQO      -0.105000
      9 N11          1.4750     0.0760     1.5310 n          1 DQO      -0.061000
     10 C12          2.8690     0.1550     1.3170 c          1 DQO       0.623000
     11 N13          3.3070     0.2260     0.0220 ns         1 DQO      -0.491900
     12 C14          2.4780     0.3180    -1.1760 c6         1 DQO       0.166300
     13 O18          3.6830     0.1770     2.2290 o          1 DQO      -0.566000
     14 C19          0.9530     0.0730     2.8760 ca         1 DQO      -0.031000
     15 C20          1.0490     1.5180    -3.8610 ca         1 DQO      -0.051000
     16 C21          1.4570     1.6440    -5.2000 ca         1 DQO      -0.173000
     17 C22          1.3050     0.5650    -6.0820 ca         1 DQO       0.203000
     18 C23          0.7460    -0.6400    -5.6380 ca         1 DQO      -0.204000
     19 C24          0.3390    -0.7660    -4.3020 ca         1 DQO       0.214000
     20 C28          1.1120    -1.0630     3.7020 ca         1 DQO       0.135000
     21 C29          0.6090    -1.0630     5.0140 ca         1 DQO      -0.105000
     22 C30         -0.0490     0.0690     5.5200 ca         1 DQO      -0.089000
     23 C31         -0.2030     1.2060     4.7100 ca         1 DQO      -0.105000
     24 C32          0.2950     1.2130     3.3960 ca         1 DQO       0.135000
     25 F36         -0.1920    -1.9400    -3.8920 f          1 DQO      -0.163000
     26 F37          1.6960     0.6880    -7.3690 f          1 DQO      -0.170000
     27 Cl38         0.1150     2.6830     2.4360 cl         1 DQO      -0.171500
     28 Cl39         1.8850    -2.5290     3.0950 cl         1 DQO      -0.171500
     29 C40         -4.1030    -0.8670    -1.0800 c6         1 DQO       0.200300
     30 C41         -5.3990    -1.4340    -0.4070 c6         1 DQO       0.149300
     31 N42         -6.0860    -0.4420     0.4700 n7         1 DQO      -0.859400
     32 C43         -5.1410     0.1170     1.4810 c6         1 DQO       0.149300
     33 C44         -3.8410     0.7120     0.8420 c6         1 DQO       0.200300
     34 HC3         -2.0260     0.0270    -2.5140 ha         1 DQO       0.122000
     35 HC5         -1.2410    -0.2240     1.6830 ha         1 DQO       0.128000
     36 H13          4.3120     0.2740    -0.0910 hn         1 DQO       0.326500
     37 H141         2.6840     1.2850    -1.6550 h1         1 DQO       0.048200
     38 H142         2.7860    -0.4750    -1.8730 h1         1 DQO       0.048200
     39 H20          1.1600     2.3630    -3.1840 ha         1 DQO       0.127000
     40 H21          1.8870     2.5770    -5.5560 ha         1 DQO       0.139000
     41 H23          0.6280    -1.4730    -6.3250 ha         1 DQO       0.152000
     42 H29          0.7260    -1.9470     5.6370 ha         1 DQO       0.135500
     43 H30         -0.4370     0.0660     6.5370 ha         1 DQO       0.123000
     44 H31         -0.7050     2.0870     5.1030 ha         1 DQO       0.135500
     45 H401        -4.3960    -0.1150    -1.8280 h1         1 DQO       0.046950
     46 H402        -3.6060    -1.6880    -1.6170 h1         1 DQO       0.046950
     47 H411        -6.0940    -1.7780    -1.1880 h1         1 DQO       0.040450
     48 H412        -5.1240    -2.3130     0.1940 h1         1 DQO       0.040450
     49 H421        -6.8650    -0.9040     0.9570 hn         1 DQO       0.415000
     50 H431        -5.6480     0.8970     2.0680 h1         1 DQO       0.040450
     51 H432        -4.8510    -0.6810     2.1810 h1         1 DQO       0.040450
     52 H441        -3.1660     1.0170     1.6540 h1         1 DQO       0.046950
     53 H442        -4.1080     1.6250     0.2880 h1         1 DQO       0.046950
@<TRIPOS>BOND
     1     1     2 ar  
     2     1     6 ar  
     3     1    12 1   
     4     2     3 ar  
     5     2     8 1   
     6     3     4 ar  
     7     3    34 1   
     8     4     5 ar  
     9     4     7 1   
    10     5     6 ar  
    11     5    35 1   
    12     6     9 1   
    13     7    29 1   
    14     7    33 1   
    15     8    15 ar  
    16     8    19 ar  
    17     9    10 1   
    18     9    14 1   
    19    10    11 1   
    20    10    13 2   
    21    11    12 1   
    22    11    36 1   
    23    12    37 1   
    24    12    38 1   
    25    14    20 ar  
    26    14    24 ar  
    27    15    16 ar  
    28    15    39 1   
    29    16    17 ar  
    30    16    40 1   
    31    17    18 ar  
    32    17    26 1   
    33    18    19 ar  
    34    18    41 1   
    35    19    25 1   
    36    20    21 ar  
    37    20    28 1   
    38    21    22 ar  
    39    21    42 1   
    40    22    23 ar  
    41    22    43 1   
    42    23    24 ar  
    43    23    44 1   
    44    24    27 1   
    45    29    30 1   
    46    29    45 1   
    47    29    46 1   
    48    30    31 1   
    49    30    47 1   
    50    30    48 1   
    51    31    32 1   
    52    31    49 1   
    53    32    33 1   
    54    32    50 1   
    55    32    51 1   
    56    33    52 1   
    57    33    53 1   
@<TRIPOS>SUBSTRUCTURE
     1 DQO         1 TEMP              0 ****  ****    0 ROOT
