@<TRIPOS>MOLECULE
DQP
   35    36     1     0     0
SMALL
No Charge or Current Charge


@<TRIPOS>ATOM
      1 C1           0.8100    -0.1180     0.8400 ca         1 DQP      -0.030300
      2 C2           1.3400     1.1960     0.8820 ca         1 DQP       0.004600
      3 C3           1.5730    -1.1510     0.2420 ca         1 DQP       0.004600
      4 C4           2.6240     1.4640     0.3600 ca         1 DQP       0.009600
      5 C5           2.8570    -0.8800    -0.2790 ca         1 DQP       0.009600
      6 C6           3.3850     0.4260    -0.2150 ca         1 DQP       0.004100
      7 C7          -0.5810    -0.4140     1.4090 c3         1 DQP       0.133300
      8 N8          -1.6180    -0.2790     0.3840 ns         1 DQP      -0.515900
      9 C9          -2.9580    -0.5070     0.5980 c          1 DQP       0.639700
     10 C10         -3.8460    -0.3600    -0.6170 ca         1 DQP      -0.216600
     11 C11         -5.2320    -0.0850    -0.4880 ca         1 DQP       0.228100
     12 C12         -3.2960    -0.5080    -1.9160 ca         1 DQP      -0.047000
     13 C13         -6.0340     0.0310    -1.6460 ca         1 DQP      -0.225000
     14 C14         -4.1060    -0.3890    -3.0540 ca         1 DQP      -0.192000
     15 C15         -5.4710    -0.1220    -2.9170 ca         1 DQP       0.182000
     16 O16         -3.3600    -0.8600     1.6970 o          1 DQP      -0.552100
     17 O17         -5.7770     0.1040     0.7700 os         1 DQP      -0.269100
     18 C18         -7.1790     0.3990     0.9800 c3         1 DQP      -0.004400
     19 C19         -7.5510     0.5870     2.4790 c          1 DQP       0.730000
     20 O20         -6.6780     0.5130     3.3350 o          1 DQP      -0.704000
     21 O21         -8.7260     0.8080     2.7440 o          1 DQP      -0.704000
     22 Cl2         -6.4820     0.0250    -4.3470 cl         1 DQP      -0.233000
     23 Br3          5.1380     0.7940    -0.9280 br         1 DQP      -0.037100
     24 Br4          0.8620    -2.9420     0.1060 br         1 DQP      -0.027100
     25 Br5          0.3080     2.6480     1.6290 br         1 DQP      -0.027100
     26 Br6          3.8910    -2.2930    -1.0860 br         1 DQP      -0.031100
     27 Br7          3.3410     3.2530     0.4260 br         1 DQP      -0.031100
     28 H1          -0.6190    -1.4280     1.8270 h1         1 DQP       0.083700
     29 H2          -0.8130     0.2570     2.2450 h1         1 DQP       0.083700
     30 H3          -1.3470     0.0250    -0.5420 hn         1 DQP       0.316500
     31 H4          -2.2430    -0.7410    -2.0590 ha         1 DQP       0.108000
     32 H5          -7.0950     0.2440    -1.5810 ha         1 DQP       0.144000
     33 H6          -3.6750    -0.5110    -4.0440 ha         1 DQP       0.118000
     34 H7          -7.4540     1.3240     0.4580 h1         1 DQP       0.022700
     35 H8          -7.8000    -0.4160     0.5860 h1         1 DQP       0.022700
@<TRIPOS>BOND
     1     1     2 ar  
     2     1     3 ar  
     3     1     7 1   
     4     2     4 ar  
     5     2    25 1   
     6     3     5 ar  
     7     3    24 1   
     8     4     6 ar  
     9     4    27 1   
    10     5     6 ar  
    11     5    26 1   
    12     6    23 1   
    13     7     8 1   
    14     7    28 1   
    15     7    29 1   
    16     8     9 1   
    17     8    30 1   
    18     9    10 1   
    19     9    16 2   
    20    10    11 ar  
    21    10    12 ar  
    22    11    13 ar  
    23    11    17 1   
    24    12    14 ar  
    25    12    31 1   
    26    13    15 ar  
    27    13    32 1   
    28    14    15 ar  
    29    14    33 1   
    30    15    22 1   
    31    17    18 1   
    32    18    19 1   
    33    18    34 1   
    34    18    35 1   
    35    19    20 1   
    36    19    21 1   
@<TRIPOS>SUBSTRUCTURE
     1 DQP         1 TEMP              0 ****  ****    0 ROOT
