@<TRIPOS>MOLECULE
DQP
   35    36     1     0     0
SMALL
bcc


@<TRIPOS>ATOM
      1 C1           0.6190     0.1120     0.9150 ca         1 DQP      -0.030300
      2 C2           1.3770     1.2840     0.9620 ca         1 DQP       0.004600
      3 C3           1.1480    -0.9740     0.2110 ca         1 DQP       0.004600
      4 C4           2.6440     1.3590     0.3790 ca         1 DQP       0.009600
      5 C5           2.4080    -0.9200    -0.3810 ca         1 DQP       0.009600
      6 C6           3.1630     0.2500    -0.2870 ca         1 DQP       0.004100
      7 C7          -0.7440     0.0110     1.5610 c3         1 DQP       0.133300
      8 N8          -1.7790     0.1240     0.5630 ns         1 DQP      -0.582900
      9 C9          -2.8780    -0.6580     0.5410 c          1 DQP       0.706700
     10 C10         -3.7440    -0.4440    -0.6590 ca         1 DQP      -0.216600
     11 C11         -5.1150    -0.1750    -0.5160 ca         1 DQP       0.228100
     12 C12         -3.2000    -0.5750    -1.9270 ca         1 DQP      -0.065000
     13 C13         -5.9090    -0.0570    -1.6570 ca         1 DQP      -0.243000
     14 C14         -3.9810    -0.4690    -3.0700 ca         1 DQP      -0.210000
     15 C15         -5.3280    -0.2100    -2.9070 ca         1 DQP       0.090400
     16 O16         -3.1280    -1.4960     1.3880 o          1 DQP      -0.552100
     17 O17         -5.5700    -0.0180     0.7260 os         1 DQP      -0.245900
     18 C18         -6.9460     0.2650     0.9250 c3         1 DQP      -0.027600
     19 C19         -7.2560     0.4480     2.4200 c          1 DQP       0.940600
     20 O20         -6.3210     0.3890     3.2290 o          1 DQP      -0.809300
     21 O21         -8.4640     0.6510     2.6480 o          1 DQP      -0.809300
     22 CL2         -6.3380    -0.0650    -4.3080 cl         1 DQP      -0.141400
     23 BR3          4.8620     0.3310    -1.0610 br         1 DQP      -0.037100
     24 BR4          0.1290    -2.5420     0.0510 br         1 DQP      -0.027100
     25 BR5          0.6780     2.8180     1.7960 br         1 DQP      -0.027100
     26 BR6          3.0900    -2.4000    -1.2950 br         1 DQP      -0.031100
     27 BR7          3.6440     2.9330     0.4840 br         1 DQP      -0.031100
     28 H1          -0.8450    -0.9490     2.0650 h1         1 DQP       0.083700
     29 H2          -0.8640     0.7640     2.3370 h1         1 DQP       0.083700
     30 H3          -1.7170     0.8840    -0.0950 hn         1 DQP       0.316500
     31 H4          -2.1430    -0.7830    -2.0360 ha         1 DQP       0.126000
     32 H5          -6.9650     0.1570    -1.5850 ha         1 DQP       0.162000
     33 H6          -3.5450    -0.5880    -4.0510 ha         1 DQP       0.136000
     34 H7          -7.2290     1.1810     0.3920 h1         1 DQP       0.022700
     35 H8          -7.5620    -0.5470     0.5230 h1         1 DQP       0.022700
@<TRIPOS>BOND
     1     1     2 ar  
     2     1     3 ar  
     3     1     7 1   
     4     2     4 ar  
     5     2    25 1   
     6     3     5 ar  
     7     3    24 1   
     8     4     6 ar  
     9     4    27 1   
    10     5     6 ar  
    11     5    26 1   
    12     6    23 1   
    13     7     8 1   
    14     7    28 1   
    15     7    29 1   
    16     8     9 1   
    17     8    30 1   
    18     9    10 1   
    19     9    16 2   
    20    10    11 ar  
    21    10    12 ar  
    22    11    13 ar  
    23    11    17 1   
    24    12    14 ar  
    25    12    31 1   
    26    13    15 ar  
    27    13    32 1   
    28    14    15 ar  
    29    14    33 1   
    30    15    22 1   
    31    17    18 1   
    32    18    19 1   
    33    18    34 1   
    34    18    35 1   
    35    19    20 1   
    36    19    21 1   
@<TRIPOS>SUBSTRUCTURE
     1 DQP         1 TEMP              0 ****  ****    0 ROOT
