@<TRIPOS>MOLECULE
DQQ
   24    24     1     0     0
SMALL
abcg2


@<TRIPOS>ATOM
      1 N1          -0.0140     0.8880     0.5440 n7         1 DQQ      -0.873400
      2 C1           1.2280     0.1300     0.4030 c5         1 DQQ       0.177500
      3 C2           0.7820    -1.2730    -0.0360 c5         1 DQQ       0.124300
      4 C3          -0.7400    -1.2470     0.1250 c5         1 DQQ       0.124300
      5 C4          -1.0600     0.2050    -0.1970 c5         1 DQQ       0.177500
      6 C5           2.2010     0.7270    -0.5980 c3         1 DQQ       0.153100
      7 C6          -2.4420     0.6270     0.2440 c3         1 DQQ       0.153100
      8 O1           1.4540    -2.2590     0.7080 oh         1 DQQ      -0.650000
      9 O2          -1.4400    -2.1220    -0.7210 oh         1 DQQ      -0.650000
     10 O3           2.6120     1.9920    -0.1270 oh         1 DQQ      -0.661000
     11 O4          -2.6280     1.9850    -0.0930 oh         1 DQQ      -0.661000
     12 HN1          0.0920     1.8570     0.2760 hn         1 DQQ       0.453000
     13 H1           1.7340     0.0580     1.3740 h1         1 DQQ       0.072200
     14 H2           0.9870    -1.3980    -1.1110 h1         1 DQQ       0.050200
     15 H3          -0.9840    -1.4310     1.1820 h1         1 DQQ       0.050200
     16 H4          -0.9820     0.3440    -1.2900 h1         1 DQQ       0.072200
     17 H51          1.7070     0.8050    -1.5760 h1         1 DQQ       0.027450
     18 H52          3.0530     0.0430    -0.7200 h1         1 DQQ       0.027450
     19 H61         -3.1860    -0.0140    -0.2460 h1         1 DQQ       0.027450
     20 H62         -2.5290     0.4630     1.3270 h1         1 DQQ       0.027450
     21 HO1          1.3040    -3.1120     0.2900 ho         1 DQQ       0.445000
     22 HO2         -1.4260    -3.0020    -0.3360 ho         1 DQQ       0.445000
     23 HO3          3.1060     2.4290    -0.8260 ho         1 DQQ       0.445000
     24 HO4         -3.4960     2.2560     0.2200 ho         1 DQQ       0.445000
@<TRIPOS>BOND
     1     1     2 1   
     2     1     5 1   
     3     1    12 1   
     4     2     3 1   
     5     2     6 1   
     6     2    13 1   
     7     3     4 1   
     8     3     8 1   
     9     3    14 1   
    10     4     5 1   
    11     4     9 1   
    12     4    15 1   
    13     5     7 1   
    14     5    16 1   
    15     6    10 1   
    16     6    17 1   
    17     6    18 1   
    18     7    11 1   
    19     7    19 1   
    20     7    20 1   
    21     8    21 1   
    22     9    22 1   
    23    10    23 1   
    24    11    24 1   
@<TRIPOS>SUBSTRUCTURE
     1 DQQ         1 TEMP              0 ****  ****    0 ROOT
