@<TRIPOS>MOLECULE
DQQ
   24    24     1     0     0
SMALL
No Charge or Current Charge


@<TRIPOS>ATOM
      1 N1          -0.0170     0.9970     0.4010 n7         1 DQQ      -0.873400
      2 C1           1.2130     0.1370     0.3530 c5         1 DQQ       0.177500
      3 C2           0.7460    -1.2550    -0.2060 c5         1 DQQ       0.124300
      4 C3          -0.7450    -1.2660     0.2490 c5         1 DQQ       0.124300
      5 C4          -1.1210     0.1820    -0.1910 c5         1 DQQ       0.177500
      6 C5           2.3710     0.7650    -0.4830 c3         1 DQQ       0.153100
      7 C6          -2.5400     0.6440     0.2590 c3         1 DQQ       0.153100
      8 O1           1.4990    -2.3660     0.3060 oh         1 DQQ      -0.650000
      9 O2          -1.5180    -2.2920    -0.3930 oh         1 DQQ      -0.650000
     10 O3           2.6690     2.1060    -0.0520 oh         1 DQQ      -0.661000
     11 O4          -2.8290     1.9780    -0.2040 oh         1 DQQ      -0.661000
     12 HN1          0.1290     1.8570    -0.1450 hn         1 DQQ       0.453000
     13 H1           1.5900     0.0060     1.3770 h1         1 DQQ       0.072200
     14 H2           0.7940    -1.2490    -1.3050 h1         1 DQQ       0.050200
     15 H3          -0.8200    -1.3610     1.3430 h1         1 DQQ       0.050200
     16 H4          -1.0900     0.2440    -1.2890 h1         1 DQQ       0.072200
     17 H51          2.0790     0.7720    -1.5420 h1         1 DQQ       0.027450
     18 H52          3.2590     0.1260    -0.3880 h1         1 DQQ       0.027450
     19 H61         -3.2830    -0.0600    -0.1400 h1         1 DQQ       0.027450
     20 H62         -2.5970     0.6000     1.3550 h1         1 DQQ       0.027450
     21 HO1          1.2280    -3.1570    -0.2110 ho         1 DQQ       0.445000
     22 HO2         -1.4080    -3.1110     0.1390 ho         1 DQQ       0.445000
     23 HO3          3.4210     2.4240    -0.6000 ho         1 DQQ       0.445000
     24 HO4         -3.6970     2.2320     0.1820 ho         1 DQQ       0.445000
@<TRIPOS>BOND
     1     1     2 1   
     2     1     5 1   
     3     1    12 1   
     4     2     3 1   
     5     2     6 1   
     6     2    13 1   
     7     3     4 1   
     8     3     8 1   
     9     3    14 1   
    10     4     5 1   
    11     4     9 1   
    12     4    15 1   
    13     5     7 1   
    14     5    16 1   
    15     6    10 1   
    16     6    17 1   
    17     6    18 1   
    18     7    11 1   
    19     7    19 1   
    20     7    20 1   
    21     8    21 1   
    22     9    22 1   
    23    10    23 1   
    24    11    24 1   
@<TRIPOS>SUBSTRUCTURE
     1 DQQ         1 TEMP              0 ****  ****    0 ROOT
