@<TRIPOS>MOLECULE
DQS
   44    46     1     0     0
SMALL
abcg2


@<TRIPOS>ATOM
      1 C10          4.3580     1.4680     0.0650 cc         1 DQS       0.314900
      2 N12          2.9700    -0.1170     0.0560 n          1 DQS       0.124000
      3 C13          2.4680    -1.4330     0.0870 c          1 DQS       0.559000
      4 C15         -1.1670    -0.3180    -0.2780 cc         1 DQS      -0.234800
      5 C20         -4.3730     2.4680    -0.1490 c3         1 DQS      -0.101100
      6 C21         -4.6690     0.8900     1.7860 c3         1 DQS      -0.101100
      7 C24          0.6130    -3.7670    -1.0410 c3         1 DQS      -0.088100
      8 C01          0.7630    -3.5760     1.4790 c3         1 DQS      -0.088100
      9 C03          1.0220    -1.5120     0.0290 cd         1 DQS      -0.259400
     10 C04          0.2820    -0.3710    -0.1310 cc         1 DQS       0.282800
     11 C06          2.2110     0.9910    -0.0630 cd         1 DQS       0.291000
     12 C07          3.0810     2.0710    -0.0620 cc         1 DQS      -0.216000
     13 C08          2.7540     3.4320    -0.1620 cg         1 DQS       0.369000
     14 C16         -2.0300     0.5640     0.3460 cd         1 DQS      -0.144000
     15 C19         -5.6920     0.3630    -0.4280 c3         1 DQS      -0.101100
     16 C23         -2.0050    -1.0700    -1.1230 cc         1 DQS       0.277900
     17 N05          0.8810     0.8610    -0.1680 na         1 DQS      -0.790000
     18 N09          2.4850     4.5520    -0.2430 n1         1 DQS      -0.479000
     19 N11          4.2870     0.1670     0.1340 nd         1 DQS      -0.471800
     20 N17         -3.2600     0.2990    -0.1170 na         1 DQS       0.147800
     21 N22         -3.2570    -0.6820    -1.0140 nd         1 DQS      -0.511800
     22 O14          3.2470    -2.3570     0.1640 o          1 DQS      -0.460000
     23 H1           5.3090     1.9750     0.1060 h4         1 DQS       0.050100
     24 H2          -3.5450     2.9640     0.3590 hc         1 DQS       0.052589
     25 H3          -4.2170     2.5550    -1.2250 hc         1 DQS       0.052589
     26 H4          -5.2860     3.0060     0.1060 hc         1 DQS       0.052589
     27 H5          -5.5840     1.3970     2.0900 hc         1 DQS       0.052589
     28 H6          -4.7390    -0.1530     2.0950 hc         1 DQS       0.052589
     29 H7          -3.8430     1.3530     2.3280 hc         1 DQS       0.052589
     30 H8           0.0740    -4.7080    -0.9240 hc         1 DQS       0.040033
     31 H9           0.2600    -3.2950    -1.9590 hc         1 DQS       0.040033
     32 H10          1.6690    -4.0020    -1.1700 hc         1 DQS       0.040033
     33 H11          0.6350    -2.9160     2.3380 hc         1 DQS       0.040033
     34 H12          0.1130    -4.4390     1.6290 hc         1 DQS       0.040033
     35 H13          1.7900    -3.9330     1.4720 hc         1 DQS       0.040033
     36 H14         -0.6990    -2.7010     0.2430 hc         1 DQS       0.049700
     37 H16         -1.8410     1.3240     1.0880 h4         1 DQS       0.161000
     38 H17         -5.6280     0.4450    -1.5120 hc         1 DQS       0.052589
     39 H18         -5.8010    -0.6900    -0.1680 hc         1 DQS       0.052589
     40 H19         -6.5950     0.8830    -0.1040 hc         1 DQS       0.052589
     41 H20         -1.7300    -1.8550    -1.8110 h4         1 DQS       0.051100
     42 H15          0.3200     1.6790    -0.3600 hn         1 DQS       0.532000
     43 C02          0.3760    -2.8710     0.1760 c3         1 DQS       0.010500
     44 C18         -4.5010     1.0040     0.2710 c3         1 DQS       0.113000
@<TRIPOS>BOND
     1     1    12 1   
     2     1    19 2   
     3     1    23 1   
     4     2     3 1   
     5     2    11 1   
     6     2    19 1   
     7     3     9 1   
     8     3    22 2   
     9     4    10 1   
    10     4    14 2   
    11     4    16 1   
    12     5    24 1   
    13     5    25 1   
    14     5    26 1   
    15     5    44 1   
    16     6    27 1   
    17     6    28 1   
    18     6    29 1   
    19     6    44 1   
    20     7    30 1   
    21     7    31 1   
    22     7    32 1   
    23     7    43 1   
    24     8    33 1   
    25     8    34 1   
    26     8    35 1   
    27     8    43 1   
    28     9    10 2   
    29     9    43 1   
    30    10    17 1   
    31    11    12 2   
    32    11    17 1   
    33    12    13 1   
    34    13    18 3   
    35    14    20 1   
    36    14    37 1   
    37    15    38 1   
    38    15    39 1   
    39    15    40 1   
    40    15    44 1   
    41    16    21 2   
    42    16    41 1   
    43    17    42 1   
    44    20    21 1   
    45    20    44 1   
    46    36    43 1   
@<TRIPOS>SUBSTRUCTURE
     1 DQS         1 TEMP              0 ****  ****    0 ROOT
