@<TRIPOS>MOLECULE
DQS
   44    46     1     0     0
SMALL
No Charge or Current Charge


@<TRIPOS>ATOM
      1 C10          4.1910     1.6630     0.1930 cc         1 DQS       0.314900
      2 N12          3.0770    -0.1840     0.0220 n          1 DQS       0.124000
      3 C13          2.5860    -1.4850    -0.1050 c          1 DQS       0.559000
      4 C15         -1.2240    -0.4340    -0.0190 cc         1 DQS      -0.234800
      5 C20         -4.3940     2.3900    -0.7750 c3         1 DQS      -0.101100
      6 C21         -4.6280     1.6150     1.6220 c3         1 DQS      -0.101100
      7 C24          0.5560    -3.7450    -1.3010 c3         1 DQS      -0.088100
      8 C01          1.2420    -3.9270     1.1710 c3         1 DQS      -0.088100
      9 C03          1.0730    -1.6070     0.0090 cd         1 DQS      -0.259400
     10 C04          0.2220    -0.4780     0.0900 cc         1 DQS       0.282800
     11 C06          2.2180     0.8310     0.2280 cd         1 DQS       0.291000
     12 C07          2.8330     2.0260     0.3430 cc         1 DQS      -0.216000
     13 C08          2.3380     3.3370     0.5490 cg         1 DQS       0.369000
     14 C16         -1.9870     0.6710     0.2500 cd         1 DQS      -0.144000
     15 C19         -5.8350     0.3990    -0.2240 c3         1 DQS      -0.101100
     16 C23         -2.1290    -1.4140    -0.4720 cc         1 DQS       0.277900
     17 N05          0.8530     0.7490     0.2780 na         1 DQS      -0.790000
     18 N09          1.9020     4.4060     0.7180 n1         1 DQS      -0.479000
     19 N11          4.3860     0.3580    -0.0010 nd         1 DQS      -0.471800
     20 N17         -3.3090     0.2860    -0.0150 na         1 DQS       0.147800
     21 N22         -3.3860    -1.0240    -0.4780 nd         1 DQS      -0.511800
     22 O14          3.3500    -2.4260    -0.2980 o          1 DQS      -0.460000
     23 H1           5.0510     2.3200     0.2160 h4         1 DQS       0.050100
     24 H2          -3.5120     2.9890    -0.5170 hc         1 DQS       0.052589
     25 H3          -4.3000     2.0860    -1.8250 hc         1 DQS       0.052589
     26 H4          -5.2750     3.0380    -0.6880 hc         1 DQS       0.052589
     27 H5          -5.5170     2.2390     1.7740 hc         1 DQS       0.052589
     28 H6          -4.6990     0.7530     2.2970 hc         1 DQS       0.052589
     29 H7          -3.7510     2.2040     1.9180 hc         1 DQS       0.052589
     30 H8           0.0550    -4.7190    -1.2420 hc         1 DQS       0.040033
     31 H9           0.0230    -3.1320    -2.0370 hc         1 DQS       0.040033
     32 H10          1.5750    -3.9100    -1.6710 hc         1 DQS       0.040033
     33 H11          1.3470    -3.3650     2.1070 hc         1 DQS       0.040033
     34 H12          0.6270    -4.8110     1.3810 hc         1 DQS       0.040033
     35 H13          2.2290    -4.2920     0.8680 hc         1 DQS       0.040033
     36 H14         -0.4610    -3.0400     0.4450 hc         1 DQS       0.049700
     37 H16         -1.7330     1.6610     0.6090 h4         1 DQS       0.161000
     38 H17         -5.8200     0.0670    -1.2690 hc         1 DQS       0.052589
     39 H18         -5.9790    -0.4830     0.4140 hc         1 DQS       0.052589
     40 H19         -6.7090     1.0500    -0.0940 hc         1 DQS       0.052589
     41 H20         -1.9260    -2.4030    -0.8530 h4         1 DQS       0.051100
     42 H15          0.3000     1.5920     0.3940 hn         1 DQS       0.532000
     43 C02          0.5670    -3.0550     0.0810 c3         1 DQS       0.010500
     44 C18         -4.5220     1.1490     0.1460 c3         1 DQS       0.113000
@<TRIPOS>BOND
     1     1    12 1   
     2     1    19 2   
     3     1    23 1   
     4     2     3 1   
     5     2    11 1   
     6     2    19 1   
     7     3     9 1   
     8     3    22 2   
     9     4    10 1   
    10     4    14 2   
    11     4    16 1   
    12     5    24 1   
    13     5    25 1   
    14     5    26 1   
    15     5    44 1   
    16     6    27 1   
    17     6    28 1   
    18     6    29 1   
    19     6    44 1   
    20     7    30 1   
    21     7    31 1   
    22     7    32 1   
    23     7    43 1   
    24     8    33 1   
    25     8    34 1   
    26     8    35 1   
    27     8    43 1   
    28     9    10 2   
    29     9    43 1   
    30    10    17 1   
    31    11    12 2   
    32    11    17 1   
    33    12    13 1   
    34    13    18 3   
    35    14    20 1   
    36    14    37 1   
    37    15    38 1   
    38    15    39 1   
    39    15    40 1   
    40    15    44 1   
    41    16    21 2   
    42    16    41 1   
    43    17    42 1   
    44    20    21 1   
    45    20    44 1   
    46    36    43 1   
@<TRIPOS>SUBSTRUCTURE
     1 DQS         1 TEMP              0 ****  ****    0 ROOT
