@<TRIPOS>MOLECULE
DQT
   58    60     1     0     0
SMALL
No Charge or Current Charge


@<TRIPOS>ATOM
      1 C1          -1.9610    -2.3890    -1.0490 c6         1 DQT       0.384300
      2 O1          -3.0250    -1.7990    -1.8170 os         1 DQT      -0.426000
      3 C2          -0.6900    -1.4750    -0.9960 c6         1 DQT       0.132300
      4 O2          -0.9780    -0.1310    -0.5180 os         1 DQT      -0.414100
      5 C3           0.4050    -2.1530    -0.1030 c6         1 DQT       0.109700
      6 N3           1.5600    -1.2540     0.0780 ns         1 DQT      -0.497900
      7 C4          -0.1680    -2.5880     1.2900 c6         1 DQT       0.132300
      8 O4          -0.3620    -1.4350     2.1460 oh         1 DQT      -0.699000
      9 C5          -1.4790    -3.4200     1.0710 c6         1 DQT       0.157300
     10 O5          -2.4340    -2.6670     0.2830 os         1 DQT      -0.452000
     11 C6          -2.1630    -3.8720     2.4040 c3         1 DQT       0.169600
     12 O6          -3.3240    -4.7000     2.1910 oh         1 DQT      -0.707000
     13 CA1         -1.4540     0.8430    -1.3560 c          1 DQT       0.616700
     14 OA1         -1.5220     0.7160    -2.5720 o          1 DQT      -0.486000
     15 CA2         -1.7460     2.1500    -0.6530 ca         1 DQT      -0.141600
     16 CA3         -2.1800     3.2690    -1.3970 ca         1 DQT      -0.050500
     17 CA4         -2.4540     4.4900    -0.7570 ca         1 DQT      -0.133500
     18 CA5         -2.2990     4.6160     0.6350 ca         1 DQT      -0.048300
     19 CA6         -1.8720     3.5050     1.3820 ca         1 DQT      -0.133500
     20 CA7         -1.5960     2.2810     0.7480 ca         1 DQT      -0.050500
     21 CA8         -2.5990     5.9380     1.3250 c3         1 DQT      -0.051800
     22 CB1          2.5520    -1.0180    -0.8430 c          1 DQT       0.617700
     23 OB1          2.5780    -1.6270    -1.9040 o          1 DQT      -0.603100
     24 CB2          3.5880     0.0250    -0.4790 ca         1 DQT      -0.153600
     25 CB3          4.6440     0.2980    -1.3790 ca         1 DQT      -0.065500
     26 CB4          5.6200     1.2610    -1.0730 ca         1 DQT      -0.122500
     27 CB5          5.5620     1.9730     0.1370 ca         1 DQT      -0.050300
     28 CB6          4.5150     1.7130     1.0370 ca         1 DQT      -0.122500
     29 CB7          3.5360     0.7500     0.7370 ca         1 DQT      -0.065500
     30 CB8          6.6170     3.0190     0.4660 c3         1 DQT      -0.051800
     31 CME         -4.1710    -2.6320    -2.0600 c3         1 DQT       0.148900
     32 H1          -1.6780    -3.3390    -1.5290 h2         1 DQT       0.024700
     33 H2          -0.2760    -1.4040    -2.0120 h1         1 DQT       0.102700
     34 H3           0.7540    -3.0600    -0.6200 h1         1 DQT       0.083700
     35 HN3          1.5750    -0.6980     0.9230 hn         1 DQT       0.334500
     36 H4           0.5750    -3.2530     1.7550 h1         1 DQT       0.041700
     37 HO4         -0.4320    -1.7590     3.0720 ho         1 DQT       0.500000
     38 H5          -1.2190    -4.3350     0.5170 h1         1 DQT       0.048700
     39 H6          -1.4210    -4.4180     3.0010 h1         1 DQT       0.028200
     40 H6A         -2.4460    -2.9750     2.9720 h1         1 DQT       0.028200
     41 HO6         -3.7290    -4.8600     3.0760 ho         1 DQT       0.506000
     42 HA3         -2.3070     3.1950    -2.4750 ha         1 DQT       0.137000
     43 HA4         -2.7880     5.3400    -1.3470 ha         1 DQT       0.113500
     44 HA6         -1.7520     3.5870     2.4600 ha         1 DQT       0.113500
     45 HA7         -1.2680     1.4390     1.3540 ha         1 DQT       0.137000
     46 HA8         -3.6500     5.9860     1.6330 hc         1 DQT       0.044367
     47 HA8A        -1.9800     6.0710     2.2200 hc         1 DQT       0.044367
     48 HA8B        -2.4050     6.7890     0.6610 hc         1 DQT       0.044367
     49 HB3          4.7130    -0.2390    -2.3230 ha         1 DQT       0.123000
     50 HB4          6.4220     1.4550    -1.7810 ha         1 DQT       0.115000
     51 HB6          4.4560     2.2610     1.9760 ha         1 DQT       0.115000
     52 HB7          2.7430     0.5830     1.4620 ha         1 DQT       0.123000
     53 HB8          6.3110     4.0080     0.1030 hc         1 DQT       0.045700
     54 HB8A         6.7820     3.0950     1.5470 hc         1 DQT       0.045700
     55 HB8B         7.5800     2.7750     0.0020 hc         1 DQT       0.045700
     56 HME         -4.6590    -2.9160    -1.1190 h1         1 DQT       0.038033
     57 HMEA        -4.9060    -2.0980    -2.6760 h1         1 DQT       0.038033
     58 HMEB        -3.8820    -3.5480    -2.5920 h1         1 DQT       0.038033
@<TRIPOS>BOND
     1     1     2 1   
     2     1     3 1   
     3     1    10 1   
     4     1    32 1   
     5     2    31 1   
     6     3     4 1   
     7     3     5 1   
     8     3    33 1   
     9     4    13 1   
    10     5     6 1   
    11     5     7 1   
    12     5    34 1   
    13     6    22 1   
    14     6    35 1   
    15     7     8 1   
    16     7     9 1   
    17     7    36 1   
    18     8    37 1   
    19     9    10 1   
    20     9    11 1   
    21     9    38 1   
    22    11    12 1   
    23    11    39 1   
    24    11    40 1   
    25    12    41 1   
    26    13    14 2   
    27    13    15 1   
    28    15    16 ar  
    29    15    20 ar  
    30    16    17 ar  
    31    16    42 1   
    32    17    18 ar  
    33    17    43 1   
    34    18    19 ar  
    35    18    21 1   
    36    19    20 ar  
    37    19    44 1   
    38    20    45 1   
    39    21    46 1   
    40    21    47 1   
    41    21    48 1   
    42    22    23 2   
    43    22    24 1   
    44    24    25 ar  
    45    24    29 ar  
    46    25    26 ar  
    47    25    49 1   
    48    26    27 ar  
    49    26    50 1   
    50    27    28 ar  
    51    27    30 1   
    52    28    29 ar  
    53    28    51 1   
    54    29    52 1   
    55    30    53 1   
    56    30    54 1   
    57    30    55 1   
    58    31    56 1   
    59    31    57 1   
    60    31    58 1   
@<TRIPOS>SUBSTRUCTURE
     1 DQT         1 TEMP              0 ****  ****    0 ROOT
