@<TRIPOS>MOLECULE
DQT
   58    60     1     0     0
SMALL
bcc


@<TRIPOS>ATOM
      1 C1          -1.9630    -2.4050    -1.0210 c6         1 DQT       0.337900
      2 O1          -2.9630    -1.8250    -1.7620 os         1 DQT      -0.379600
      3 C2          -0.7530    -1.4790    -1.0140 c6         1 DQT       0.109100
      4 O2          -1.1470    -0.2030    -0.5320 os         1 DQT      -0.390900
      5 C3           0.3200    -2.0360    -0.0720 c6         1 DQT       0.109700
      6 N3           1.4080    -1.1110     0.1000 ns         1 DQT      -0.564900
      7 C4          -0.2340    -2.4410     1.2960 c6         1 DQT       0.109100
      8 O4          -0.4850    -1.2800     2.0550 oh         1 DQT      -0.576800
      9 C5          -1.4900    -3.2910     1.0920 c6         1 DQT       0.134100
     10 O5          -2.4270    -2.6140     0.2840 os         1 DQT      -0.405600
     11 C6          -2.1500    -3.6500     2.4050 c3         1 DQT       0.146400
     12 O6          -3.1770    -4.5790     2.1580 oh         1 DQT      -0.584800
     13 CA1         -1.2280     0.8320    -1.3570 c          1 DQT       0.665700
     14 OA1         -1.0190     0.7750    -2.5450 o          1 DQT      -0.535000
     15 CA2         -1.5880     2.0770    -0.6400 ca         1 DQT      -0.141600
     16 CA3         -1.8000     3.2350    -1.3830 ca         1 DQT      -0.068500
     17 CA4         -2.1280     4.4230    -0.7510 ca         1 DQT      -0.151500
     18 CA5         -2.2480     4.4880     0.6350 ca         1 DQT      -0.048300
     19 CA6         -2.0290     3.3240     1.3720 ca         1 DQT      -0.151500
     20 CA7         -1.7060     2.1310     0.7500 ca         1 DQT      -0.068500
     21 CA8         -2.6150     5.7690     1.3220 c3         1 DQT      -0.051800
     22 CB1          2.4360    -1.0030    -0.7620 c          1 DQT       0.684700
     23 OB1          2.5250    -1.6900    -1.7700 o          1 DQT      -0.603100
     24 CB2          3.4710     0.0170    -0.4200 ca         1 DQT      -0.153600
     25 CB3          4.2820     0.5040    -1.4430 ca         1 DQT      -0.083500
     26 CB4          5.2580     1.4490    -1.1790 ca         1 DQT      -0.140500
     27 CB5          5.4670     1.9270     0.1140 ca         1 DQT      -0.050300
     28 CB6          4.6680     1.4210     1.1360 ca         1 DQT      -0.140500
     29 CB7          3.6820     0.4820     0.8760 ca         1 DQT      -0.083500
     30 CB8          6.5080     2.9700     0.3900 c3         1 DQT      -0.051800
     31 CME         -4.0460    -2.6860    -2.0640 c3         1 DQT       0.125700
     32 H1          -1.6470    -3.3720    -1.4590 h2         1 DQT       0.024700
     33 H2          -0.3430    -1.4070    -2.0240 h1         1 DQT       0.102700
     34 H3           0.7040    -2.9450    -0.5430 h1         1 DQT       0.083700
     35 HN3          1.2980    -0.4390     0.8430 hn         1 DQT       0.334500
     36 H4           0.5220    -3.0680     1.7840 h1         1 DQT       0.041700
     37 HO4         -0.2860    -1.4620     2.9780 ho         1 DQT       0.401000
     38 H5          -1.1700    -4.2250     0.6000 h1         1 DQT       0.048700
     39 H6          -1.3780    -4.0640     3.0670 h1         1 DQT       0.028200
     40 H6A         -2.5340    -2.7410     2.8840 h1         1 DQT       0.028200
     41 HO6         -3.6380    -4.7370     2.9870 ho         1 DQT       0.407000
     42 HA3         -1.7100     3.2120    -2.4610 ha         1 DQT       0.155000
     43 HA4         -2.2910     5.3140    -1.3450 ha         1 DQT       0.131500
     44 HA6         -2.1110     3.3520     2.4520 ha         1 DQT       0.131500
     45 HA7         -1.5370     1.2480     1.3520 ha         1 DQT       0.155000
     46 HA8         -3.6170     5.7060     1.7520 hc         1 DQT       0.044367
     47 HA8A        -1.9300     5.9890     2.1420 hc         1 DQT       0.044367
     48 HA8B        -2.6020     6.6120     0.6330 hc         1 DQT       0.044367
     49 HB3          4.1470     0.1450    -2.4550 ha         1 DQT       0.141000
     50 HB4          5.8730     1.8170    -1.9910 ha         1 DQT       0.133000
     51 HB6          4.8210     1.7580     2.1540 ha         1 DQT       0.133000
     52 HB7          3.1060     0.1010     1.7100 ha         1 DQT       0.141000
     53 HB8          6.0970     3.9720     0.2450 hc         1 DQT       0.045700
     54 HB8A         6.8700     2.9150     1.4160 hc         1 DQT       0.045700
     55 HB8B         7.3620     2.8710    -0.2790 hc         1 DQT       0.045700
     56 HME         -4.6090    -2.9720    -1.1730 h1         1 DQT       0.038033
     57 HMEA        -4.7090    -2.1440    -2.7360 h1         1 DQT       0.038033
     58 HMEB        -3.7060    -3.5960    -2.5680 h1         1 DQT       0.038033
@<TRIPOS>BOND
     1     1     2 1   
     2     1     3 1   
     3     1    10 1   
     4     1    32 1   
     5     2    31 1   
     6     3     4 1   
     7     3     5 1   
     8     3    33 1   
     9     4    13 1   
    10     5     6 1   
    11     5     7 1   
    12     5    34 1   
    13     6    22 1   
    14     6    35 1   
    15     7     8 1   
    16     7     9 1   
    17     7    36 1   
    18     8    37 1   
    19     9    10 1   
    20     9    11 1   
    21     9    38 1   
    22    11    12 1   
    23    11    39 1   
    24    11    40 1   
    25    12    41 1   
    26    13    14 2   
    27    13    15 1   
    28    15    16 ar  
    29    15    20 ar  
    30    16    17 ar  
    31    16    42 1   
    32    17    18 ar  
    33    17    43 1   
    34    18    19 ar  
    35    18    21 1   
    36    19    20 ar  
    37    19    44 1   
    38    20    45 1   
    39    21    46 1   
    40    21    47 1   
    41    21    48 1   
    42    22    23 2   
    43    22    24 1   
    44    24    25 ar  
    45    24    29 ar  
    46    25    26 ar  
    47    25    49 1   
    48    26    27 ar  
    49    26    50 1   
    50    27    28 ar  
    51    27    30 1   
    52    28    29 ar  
    53    28    51 1   
    54    29    52 1   
    55    30    53 1   
    56    30    54 1   
    57    30    55 1   
    58    31    56 1   
    59    31    57 1   
    60    31    58 1   
@<TRIPOS>SUBSTRUCTURE
     1 DQT         1 TEMP              0 ****  ****    0 ROOT
