@<TRIPOS>MOLECULE
DQU
   21    22     1     0     0
SMALL
No Charge or Current Charge


@<TRIPOS>ATOM
      1 C6           2.6340     0.1100    -0.0570 ca         1 DQU       0.251000
      2 N4           3.9400    -0.3110    -0.0970 nv         1 DQU      -1.065000
      3 C1           2.3370     1.4790     0.0310 ca         1 DQU      -0.115000
      4 C2           0.9990     1.9140     0.0730 ca         1 DQU      -0.084000
      5 C3          -0.0580     0.9860     0.0290 ca         1 DQU       0.057000
      6 N3          -1.3430     1.3980     0.0690 nb         1 DQU      -0.263000
      7 C8          -2.2880     0.4480     0.0220 ca         1 DQU       0.398900
      8 N2          -3.5700     0.8720     0.0610 nv         1 DQU      -1.048900
      9 N1          -2.1180    -0.8740    -0.0630 nb         1 DQU      -0.339000
     10 C7          -0.8460    -1.2940    -0.1040 ca         1 DQU       0.397300
     11 O1          -0.6640    -2.6380    -0.1900 oh         1 DQU      -0.638300
     12 C4           0.2440    -0.3940    -0.0600 ca         1 DQU      -0.150000
     13 C5           1.5890    -0.8270    -0.1030 ca         1 DQU      -0.119000
     14 HN41         4.6990     0.3540     0.0440 hn         1 DQU       0.444000
     15 HN42         4.1640    -1.3040    -0.0520 hn         1 DQU       0.444000
     16 H1           3.1390     2.2100     0.0660 ha         1 DQU       0.114000
     17 H2           0.7820     2.9770     0.1420 ha         1 DQU       0.132000
     18 HN21        -3.7560     1.8590    -0.0990 hn         1 DQU       0.484500
     19 HN22        -4.3060     0.2180    -0.1940 hn         1 DQU       0.484500
     20 HO1         -1.5630    -3.0290    -0.2020 ho         1 DQU       0.489000
     21 H5           1.8230    -1.8860    -0.1720 ha         1 DQU       0.126000
@<TRIPOS>BOND
     1     1     2 1   
     2     1     3 ar  
     3     1    13 ar  
     4     2    14 1   
     5     2    15 1   
     6     3     4 ar  
     7     3    16 1   
     8     4     5 ar  
     9     4    17 1   
    10     5     6 ar  
    11     5    12 ar  
    12     6     7 ar  
    13     7     8 1   
    14     7     9 ar  
    15     8    18 1   
    16     8    19 1   
    17     9    10 ar  
    18    10    11 1   
    19    10    12 ar  
    20    11    20 1   
    21    12    13 ar  
    22    13    21 1   
@<TRIPOS>SUBSTRUCTURE
     1 DQU         1 TEMP              0 ****  ****    0 ROOT
