@<TRIPOS>MOLECULE
DQU
   21    22     1     0     0
SMALL
abcg2


@<TRIPOS>ATOM
      1 C6           2.6330     0.0770    -0.0950 ca         1 DQU       0.251000
      2 N4           3.9580    -0.3000    -0.2050 nv         1 DQU      -1.065000
      3 C1           2.3030     1.4520    -0.0050 ca         1 DQU      -0.115000
      4 C2           1.0050     1.8830     0.0490 ca         1 DQU      -0.084000
      5 C3          -0.0640     0.9630     0.0110 ca         1 DQU       0.057000
      6 N3          -1.3440     1.4060     0.0610 nb         1 DQU      -0.263000
      7 C8          -2.2840     0.4950     0.0260 ca         1 DQU       0.398900
      8 N2          -3.5800     0.8840     0.1220 nv         1 DQU      -1.048900
      9 N1          -2.0900    -0.8460    -0.0620 nb         1 DQU      -0.339000
     10 C7          -0.8650    -1.2720    -0.1130 ca         1 DQU       0.397300
     11 O1          -0.6360    -2.5720    -0.2030 oh         1 DQU      -0.638300
     12 C4           0.2650    -0.4030    -0.0780 ca         1 DQU      -0.150000
     13 C5           1.6000    -0.8400    -0.1270 ca         1 DQU      -0.119000
     14 HN41         4.6200     0.3300     0.2200 hn         1 DQU       0.444000
     15 HN42         4.1540    -1.2570     0.0460 hn         1 DQU       0.444000
     16 H1           3.1050     2.1810     0.0210 ha         1 DQU       0.114000
     17 H2           0.7840     2.9410     0.1210 ha         1 DQU       0.132000
     18 HN21        -3.7820     1.8550    -0.0480 hn         1 DQU       0.484500
     19 HN22        -4.2830     0.2340    -0.1850 hn         1 DQU       0.484500
     20 HO1         -1.4810    -3.0450    -0.2200 ho         1 DQU       0.489000
     21 H5           1.8210    -1.8980    -0.1920 ha         1 DQU       0.126000
@<TRIPOS>BOND
     1     1     2 1   
     2     1     3 ar  
     3     1    13 ar  
     4     2    14 1   
     5     2    15 1   
     6     3     4 ar  
     7     3    16 1   
     8     4     5 ar  
     9     4    17 1   
    10     5     6 ar  
    11     5    12 ar  
    12     6     7 ar  
    13     7     8 1   
    14     7     9 ar  
    15     8    18 1   
    16     8    19 1   
    17     9    10 ar  
    18    10    11 1   
    19    10    12 ar  
    20    11    20 1   
    21    12    13 ar  
    22    13    21 1   
@<TRIPOS>SUBSTRUCTURE
     1 DQU         1 TEMP              0 ****  ****    0 ROOT
