@<TRIPOS>MOLECULE
DQV
   70    74     1     0     0
SMALL
abcg2


@<TRIPOS>ATOM
      1 O3           1.4970     3.7400    -0.2400 o          1 DQV      -0.854500
      2 C4           4.3070    -0.5200    -0.9500 ca         1 DQV      -0.028000
      3 C5           4.1780    -1.7020    -0.2250 ca         1 DQV      -0.128300
      4 O4           2.1280     2.0270    -2.0870 o          1 DQV      -0.854500
      5 C6           5.3160    -2.4610     0.0240 ca         1 DQV      -0.071000
      6 N1          -3.0570    -0.2930    -0.0760 na         1 DQV      -0.285300
      7 C7           2.8300    -2.2050     0.2530 c5         1 DQV       0.213600
      8 C8           1.4310    -0.5600     1.1370 c5         1 DQV       0.151300
      9 N2          -1.9370     0.1170     1.8050 nc         1 DQV      -0.574100
     10 C9           1.5240     0.9310     0.9100 c3         1 DQV       0.233600
     11 O5          -0.2680     2.7800    -1.8720 os         1 DQV      -0.690800
     12 C10         -3.7490     3.1290    -2.3560 c3         1 DQV       0.230600
     13 O6          -1.9080     3.8480    -0.1790 o          1 DQV      -0.849000
     14 C11         -3.9810     1.6960    -2.7960 c5         1 DQV       0.144300
     15 C12         -3.7960    -0.0640    -1.2920 c5         1 DQV       0.326300
     16 N3          -1.3010    -2.1970     3.7190 nv         1 DQV      -1.069900
     17 C13         -5.1510     0.6030    -1.0710 c5         1 DQV       0.062300
     18 O7          -0.7560     5.2890    -2.0210 o          1 DQV      -0.849000
     19 C14         -5.3880     1.2260    -2.4470 c5         1 DQV       0.098300
     20 O8          -2.4510     3.5590    -2.6840 os         1 DQV      -0.580400
     21 C15         -2.4270     0.6320     0.7150 cd         1 DQV       0.483700
     22 N4          -2.4460    -3.5110     2.2050 nb         1 DQV      -0.321000
     23 P1          -1.3350     3.9920    -1.5570 p5         1 DQV       1.472800
     24 O11         -5.7930     0.2540    -3.3770 oh         1 DQV      -0.714000
     25 O10         -6.0980    -0.3420    -0.6730 oh         1 DQV      -0.704000
     26 C19         -2.9530    -1.4920     0.5690 ca         1 DQV       0.111500
     27 N5          -3.4120    -2.6810     0.1870 nb         1 DQV      -0.207000
     28 C18         -3.1200    -3.6250     1.0640 ca         1 DQV       0.144900
     29 C17         -1.9800    -2.3120     2.5690 ca         1 DQV       0.422900
     30 C16         -2.2520    -1.2150     1.7330 ca         1 DQV      -0.070600
     31 O9          -3.0840     0.8040    -2.1220 os         1 DQV      -0.397000
     32 P            1.1460     2.5530    -1.0820 p5         1 DQV       1.455800
     33 O2           0.6440     1.3240    -0.1170 os         1 DQV      -0.571400
     34 O1           1.7930    -1.2890    -0.0270 os         1 DQV      -0.405000
     35 C20          2.3880    -1.0220     2.2360 c5         1 DQV       0.087300
     36 O12          1.7510    -0.9880     3.4860 oh         1 DQV      -0.716000
     37 C21          2.7710    -2.4260     1.7640 c5         1 DQV       0.099300
     38 O13          1.7520    -3.3490     2.0480 oh         1 DQV      -0.709000
     39 C3           5.5580    -0.1030    -1.3870 ca         1 DQV      -0.113000
     40 C2           6.6880    -0.8590    -1.1260 ca         1 DQV      -0.105000
     41 C1           6.5690    -2.0580    -0.4240 ca         1 DQV      -0.187600
     42 C            7.7440    -2.9260    -0.0970 c          1 DQV       0.622700
     43 O            7.7010    -3.7220     0.8320 o          1 DQV      -0.634100
     44 N            8.8290    -2.7760    -0.8710 nt         1 DQV      -0.611000
     45 H1           3.4430     0.0880    -1.1870 ha         1 DQV       0.207000
     46 H3           5.2350    -3.3940     0.5680 ha         1 DQV       0.118000
     47 H4           2.6110    -3.1440    -0.2690 h1         1 DQV       0.082700
     48 H5           0.4030    -0.8180     1.4100 h1         1 DQV       0.091700
     49 H6           1.2680     1.4340     1.8500 h1         1 DQV       0.017700
     50 H7           2.5670     1.1860     0.6840 h1         1 DQV       0.017700
     51 H8          -4.4680     3.7610    -2.8880 h1         1 DQV       0.014700
     52 H9          -3.9500     3.2380    -1.2860 h1         1 DQV       0.014700
     53 H11         -3.8030     1.6160    -3.8730 h1         1 DQV       0.091700
     54 H12         -3.9340    -1.0510    -1.7520 h2         1 DQV       0.094700
     55 H13         -1.0400    -3.0350     4.2110 hn         1 DQV       0.490000
     56 H14         -0.7470    -1.3760     3.8940 hn         1 DQV       0.490000
     57 H15         -5.0390     1.4050    -0.3290 h1         1 DQV       0.072700
     58 H16         -6.0990     2.0620    -2.4020 h1         1 DQV       0.041700
     59 H17         -2.3350     1.6700     0.4210 h5         1 DQV       0.146800
     60 H18         -6.5000    -0.2640    -2.9740 ho         1 DQV       0.501000
     61 H19         -6.8360     0.1150    -0.2580 ho         1 DQV       0.494000
     62 H20         -3.4690    -4.6240     0.8260 h5         1 DQV       0.020100
     63 H21          3.2890    -0.3950     2.2370 h1         1 DQV       0.054700
     64 H22          2.4190    -1.0350     4.1770 ho         1 DQV       0.492000
     65 H23          3.7330    -2.7490     2.1780 h1         1 DQV       0.041700
     66 H24          1.3750    -3.1150     2.9050 ho         1 DQV       0.506000
     67 H25          5.6490     0.8270    -1.9340 ha         1 DQV       0.138000
     68 H26          7.6520    -0.4950    -1.4570 ha         1 DQV       0.091000
     69 H27          8.8250    -2.2280    -1.7130 hn         1 DQV       0.304000
     70 H28          9.6430    -3.3450    -0.7010 hn         1 DQV       0.304000
@<TRIPOS>BOND
     1     1    32 1   
     2     2     3 ar  
     3     2    39 ar  
     4     2    45 1   
     5     3     5 ar  
     6     3     7 1   
     7     4    32 1   
     8     5    41 ar  
     9     5    46 1   
    10     6    15 1   
    11     6    21 1   
    12     6    26 1   
    13     7    34 1   
    14     7    37 1   
    15     7    47 1   
    16     8    10 1   
    17     8    34 1   
    18     8    35 1   
    19     8    48 1   
    20     9    21 2   
    21     9    30 1   
    22    10    33 1   
    23    10    49 1   
    24    10    50 1   
    25    11    23 1   
    26    11    32 1   
    27    12    14 1   
    28    12    20 1   
    29    12    51 1   
    30    12    52 1   
    31    13    23 1   
    32    14    19 1   
    33    14    31 1   
    34    14    53 1   
    35    15    17 1   
    36    15    31 1   
    37    15    54 1   
    38    16    29 1   
    39    16    55 1   
    40    16    56 1   
    41    17    19 1   
    42    17    25 1   
    43    17    57 1   
    44    18    23 1   
    45    19    24 1   
    46    19    58 1   
    47    20    23 1   
    48    21    59 1   
    49    22    28 ar  
    50    22    29 ar  
    51    24    60 1   
    52    25    61 1   
    53    26    27 ar  
    54    26    30 ar  
    55    27    28 ar  
    56    28    62 1   
    57    29    30 ar  
    58    32    33 1   
    59    35    36 1   
    60    35    37 1   
    61    35    63 1   
    62    36    64 1   
    63    37    38 1   
    64    37    65 1   
    65    38    66 1   
    66    39    40 ar  
    67    39    67 1   
    68    40    41 ar  
    69    40    68 1   
    70    41    42 1   
    71    42    43 2   
    72    42    44 1   
    73    44    69 1   
    74    44    70 1   
@<TRIPOS>SUBSTRUCTURE
     1 DQV         1 TEMP              0 ****  ****    0 ROOT
