@<TRIPOS>MOLECULE
DQV
   70    74     1     0     0
SMALL
No Charge or Current Charge


@<TRIPOS>ATOM
      1 O3          -0.7110     5.0130     1.3280 o          1 DQV      -0.854500
      2 C4           4.7410    -0.1220    -1.0990 ca         1 DQV      -0.028000
      3 C5           3.5720    -0.8960    -1.2500 ca         1 DQV      -0.128300
      4 O4           1.4850     4.8880     0.1870 o          1 DQV      -0.854500
      5 C6           3.5790    -1.9730    -2.1600 ca         1 DQV      -0.071000
      6 N1          -2.7900    -0.5890     1.1480 na         1 DQV      -0.285300
      7 C7           2.3050    -0.5990    -0.4450 c5         1 DQV       0.213600
      8 C8           1.7870     0.9350     1.2310 c5         1 DQV       0.151300
      9 N2          -4.0770     0.6880     2.5790 nc         1 DQV      -0.574100
     10 C9           2.0390     2.3690     1.7740 c3         1 DQV       0.233600
     11 O5          -0.2460     3.0630    -0.3080 os         1 DQV      -0.690800
     12 C10         -1.9580     1.3880    -2.4730 c3         1 DQV       0.230600
     13 O6          -2.7230     3.6290    -0.6410 o          1 DQV      -0.849000
     14 C11         -1.0870     0.2560    -1.8570 c5         1 DQV       0.144300
     15 C12         -1.9380    -0.9280     0.0150 c5         1 DQV       0.326300
     16 N3          -5.3700    -0.5930     5.0080 nv         1 DQV      -1.069900
     17 C13         -2.6630    -1.4480    -1.2690 c5         1 DQV       0.062300
     18 O7          -1.0240     5.0370    -1.7800 o          1 DQV      -0.849000
     19 C14         -1.5530    -1.1690    -2.3170 c5         1 DQV       0.098300
     20 O8          -1.2510     2.6390    -2.4670 os         1 DQV      -0.580400
     21 C15         -3.3180     0.6780     1.4620 cd         1 DQV       0.483700
     22 N4          -4.4060    -2.5670     4.3630 nb         1 DQV      -0.321000
     23 P1          -1.3560     3.6840    -1.2410 p5         1 DQV       1.472800
     24 O11         -0.5290    -2.1650    -2.2280 oh         1 DQV      -0.714000
     25 O10         -3.0140    -2.8480    -1.2330 oh         1 DQV      -0.704000
     26 C19         -3.2410    -1.4080     2.1490 ca         1 DQV       0.111500
     27 N5          -3.0340    -2.7210     2.3750 nb         1 DQV      -0.207000
     28 C18         -3.6310    -3.2360     3.4760 ca         1 DQV       0.144900
     29 C17         -4.5950    -1.2630     4.1110 ca         1 DQV       0.422900
     30 C16         -4.0080    -0.6390     2.9880 ca         1 DQV      -0.070600
     31 O9          -1.2230     0.2500    -0.4100 os         1 DQV      -0.397000
     32 P            0.3190     4.1190     0.7190 p5         1 DQV       1.455800
     33 O2           0.8030     3.0930     1.8660 os         1 DQV      -0.571400
     34 O1           2.2140     0.8150    -0.1410 os         1 DQV      -0.405000
     35 C20          2.6480    -0.1680     1.9220 c5         1 DQV       0.087300
     36 O12          2.2010    -0.5230     3.2470 oh         1 DQV      -0.716000
     37 C21          2.4350    -1.3510     0.9340 c5         1 DQV       0.099300
     38 O13          1.2410    -2.0320     1.3280 oh         1 DQV      -0.709000
     39 C3           5.8910    -0.4240    -1.8460 ca         1 DQV      -0.113000
     40 C2           5.8900    -1.4990    -2.7480 ca         1 DQV      -0.105000
     41 C1           4.7300    -2.2910    -2.9180 ca         1 DQV      -0.187600
     42 C            4.6930    -3.4590    -3.8810 c          1 DQV       0.622700
     43 O            3.7070    -4.1610    -4.0360 o          1 DQV      -0.634100
     44 N            5.8060    -3.7300    -4.5950 nt         1 DQV      -0.611000
     45 H1           4.7620     0.7180    -0.4060 ha         1 DQV       0.207000
     46 H3           2.6760    -2.5710    -2.2740 ha         1 DQV       0.118000
     47 H4           1.4050    -0.9130    -0.9850 h1         1 DQV       0.082700
     48 H5           0.7160     0.7010     1.3000 h1         1 DQV       0.091700
     49 H6           2.4830     2.2960     2.7740 h1         1 DQV       0.017700
     50 H7           2.7690     2.8810     1.1350 h1         1 DQV       0.017700
     51 H8          -2.1880     1.1220    -3.5130 h1         1 DQV       0.014700
     52 H9          -2.9140     1.4550    -1.9400 h1         1 DQV       0.014700
     53 H11         -0.0400     0.4400    -2.1300 h1         1 DQV       0.091700
     54 H12         -1.2210    -1.6780     0.3700 h2         1 DQV       0.094700
     55 H13         -5.5220    -1.0160     5.9190 hn         1 DQV       0.490000
     56 H14         -5.3570     0.4230     4.9660 hn         1 DQV       0.490000
     57 H15         -3.5530    -0.8320    -1.4690 h1         1 DQV       0.072700
     58 H16         -1.9640    -1.1490    -3.3360 h1         1 DQV       0.041700
     59 H17         -3.1120     1.5390     0.8360 h5         1 DQV       0.146800
     60 H18         -1.0080    -2.9670    -1.9030 ho         1 DQV       0.501000
     61 H19         -3.8480    -2.9610    -1.7480 ho         1 DQV       0.494000
     62 H20         -3.4700    -4.2950     3.6680 h5         1 DQV       0.020100
     63 H21          3.7080     0.1260     1.9370 h1         1 DQV       0.054700
     64 H22          2.6530     0.0760     3.8880 ho         1 DQV       0.492000
     65 H23          3.2890    -2.0420     0.9520 h1         1 DQV       0.041700
     66 H24          1.1740    -1.7690     2.2830 ho         1 DQV       0.506000
     67 H25          6.7880     0.1800    -1.7230 ha         1 DQV       0.138000
     68 H26          6.7990    -1.7040    -3.3080 ha         1 DQV       0.091000
     69 H27          6.6290    -3.1600    -4.4800 hn         1 DQV       0.304000
     70 H28          5.8000    -4.5040    -5.2410 hn         1 DQV       0.304000
@<TRIPOS>BOND
     1     1    32 1   
     2     2     3 ar  
     3     2    39 ar  
     4     2    45 1   
     5     3     5 ar  
     6     3     7 1   
     7     4    32 1   
     8     5    41 ar  
     9     5    46 1   
    10     6    15 1   
    11     6    21 1   
    12     6    26 1   
    13     7    34 1   
    14     7    37 1   
    15     7    47 1   
    16     8    10 1   
    17     8    34 1   
    18     8    35 1   
    19     8    48 1   
    20     9    21 2   
    21     9    30 1   
    22    10    33 1   
    23    10    49 1   
    24    10    50 1   
    25    11    23 1   
    26    11    32 1   
    27    12    14 1   
    28    12    20 1   
    29    12    51 1   
    30    12    52 1   
    31    13    23 1   
    32    14    19 1   
    33    14    31 1   
    34    14    53 1   
    35    15    17 1   
    36    15    31 1   
    37    15    54 1   
    38    16    29 1   
    39    16    55 1   
    40    16    56 1   
    41    17    19 1   
    42    17    25 1   
    43    17    57 1   
    44    18    23 1   
    45    19    24 1   
    46    19    58 1   
    47    20    23 1   
    48    21    59 1   
    49    22    28 ar  
    50    22    29 ar  
    51    24    60 1   
    52    25    61 1   
    53    26    27 ar  
    54    26    30 ar  
    55    27    28 ar  
    56    28    62 1   
    57    29    30 ar  
    58    32    33 1   
    59    35    36 1   
    60    35    37 1   
    61    35    63 1   
    62    36    64 1   
    63    37    38 1   
    64    37    65 1   
    65    38    66 1   
    66    39    40 ar  
    67    39    67 1   
    68    40    41 ar  
    69    40    68 1   
    70    41    42 1   
    71    42    43 2   
    72    42    44 1   
    73    44    69 1   
    74    44    70 1   
@<TRIPOS>SUBSTRUCTURE
     1 DQV         1 TEMP              0 ****  ****    0 ROOT
