@<TRIPOS>MOLECULE
DQW
   23    22     1     0     0
SMALL
abcg2


@<TRIPOS>ATOM
      1 CAD          1.4430     3.3700    -7.8950 c3         1 DQW      -0.086100
      2 CAB          1.2670     1.9950    -8.5070 c3         1 DQW       0.169800
      3 OAA          0.7200     2.1590    -9.8220 oh         1 DQW      -0.725000
      4 CAC          0.3570     1.1130    -7.6740 c3         1 DQW       0.125600
      5 OAE          0.2300    -0.1310    -8.3480 os         1 DQW      -0.481000
      6 CAF         -0.7150    -1.0070    -7.7570 c3         1 DQW       0.125600
      7 CAG         -0.8410    -2.2520    -8.6270 c3         1 DQW       0.169800
      8 CAI         -1.4570    -1.9550    -9.9790 c3         1 DQW      -0.086100
      9 OAH         -1.6860    -3.2050    -7.9700 oh         1 DQW      -0.725000
     10 HAG          1.9000     3.2920    -6.9070 hc         1 DQW       0.046533
     11 HAE          2.0910     3.9820    -8.5240 hc         1 DQW       0.046533
     12 HAF          0.4780     3.8720    -7.7950 hc         1 DQW       0.046533
     13 HAB          2.2430     1.4990    -8.5870 h1         1 DQW       0.042200
     14 HAA          0.4600     1.2790   -10.1280 ho         1 DQW       0.507500
     15 HAC          0.7800     0.9660    -6.6720 h1         1 DQW       0.033450
     16 HAD         -0.6290     1.5850    -7.5710 h1         1 DQW       0.033450
     17 HAI         -1.6920    -0.5140    -7.6700 h1         1 DQW       0.033450
     18 HAH         -0.3850    -1.2910    -6.7480 h1         1 DQW       0.033450
     19 HAJ          0.1600    -2.6780    -8.7630 h1         1 DQW       0.042200
     20 HAL         -0.8590    -1.2160   -10.5130 hc         1 DQW       0.046533
     21 HAM         -1.5090    -2.8630   -10.5820 hc         1 DQW       0.046533
     22 HAK         -2.4670    -1.5590    -9.8520 hc         1 DQW       0.046533
     23 HAN         -1.2560    -3.4800    -7.1490 ho         1 DQW       0.507500
@<TRIPOS>BOND
     1     1     2 1   
     2     1    10 1   
     3     1    11 1   
     4     1    12 1   
     5     2     3 1   
     6     2     4 1   
     7     2    13 1   
     8     3    14 1   
     9     4     5 1   
    10     4    15 1   
    11     4    16 1   
    12     5     6 1   
    13     6     7 1   
    14     6    17 1   
    15     6    18 1   
    16     7     8 1   
    17     7     9 1   
    18     7    19 1   
    19     8    20 1   
    20     8    21 1   
    21     8    22 1   
    22     9    23 1   
@<TRIPOS>SUBSTRUCTURE
     1 DQW         1 TEMP              0 ****  ****    0 ROOT
