@<TRIPOS>MOLECULE
DQW
   23    22     1     0     0
SMALL
No Charge or Current Charge


@<TRIPOS>ATOM
      1 CAD          1.3790     3.4830    -7.9840 c3         1 DQW      -0.086100
      2 CAB          1.3860     2.0080    -8.4310 c3         1 DQW       0.169800
      3 OAA          1.0450     1.9210    -9.8180 oh         1 DQW      -0.725000
      4 CAC          0.4020     1.1200    -7.6230 c3         1 DQW       0.125600
      5 OAE          0.1640    -0.0870    -8.3820 os         1 DQW      -0.481000
      6 CAF         -0.7260    -1.0240    -7.7450 c3         1 DQW       0.125600
      7 CAG         -0.8940    -2.2660    -8.6670 c3         1 DQW       0.169800
      8 CAI         -1.5930    -1.9320   -10.0020 c3         1 DQW      -0.086100
      9 OAH         -1.6590    -3.2810    -7.9950 oh         1 DQW      -0.725000
     10 HAG          1.6470     3.5630    -6.9240 hc         1 DQW       0.046533
     11 HAE          2.1050     4.0650    -8.5630 hc         1 DQW       0.046533
     12 HAF          0.3870     3.9300    -8.1230 hc         1 DQW       0.046533
     13 HAB          2.3980     1.6080    -8.2770 h1         1 DQW       0.042200
     14 HAA          0.6060     1.0360    -9.8780 ho         1 DQW       0.507500
     15 HAC          0.8370     0.8920    -6.6410 h1         1 DQW       0.033450
     16 HAD         -0.5390     1.6630    -7.4650 h1         1 DQW       0.033450
     17 HAI         -1.7080    -0.5650    -7.5650 h1         1 DQW       0.033450
     18 HAH         -0.3120    -1.3410    -6.7790 h1         1 DQW       0.033450
     19 HAJ          0.1080    -2.6540    -8.8980 h1         1 DQW       0.042200
     20 HAL         -1.0120    -1.1970   -10.5710 hc         1 DQW       0.046533
     21 HAM         -1.6950    -2.8320   -10.6190 hc         1 DQW       0.046533
     22 HAK         -2.5930    -1.5180    -9.8260 hc         1 DQW       0.046533
     23 HAN         -1.0980    -3.6300    -7.2620 ho         1 DQW       0.507500
@<TRIPOS>BOND
     1     1     2 1   
     2     1    10 1   
     3     1    11 1   
     4     1    12 1   
     5     2     3 1   
     6     2     4 1   
     7     2    13 1   
     8     3    14 1   
     9     4     5 1   
    10     4    15 1   
    11     4    16 1   
    12     5     6 1   
    13     6     7 1   
    14     6    17 1   
    15     6    18 1   
    16     7     8 1   
    17     7     9 1   
    18     7    19 1   
    19     8    20 1   
    20     8    21 1   
    21     8    22 1   
    22     9    23 1   
@<TRIPOS>SUBSTRUCTURE
     1 DQW         1 TEMP              0 ****  ****    0 ROOT
