@<TRIPOS>MOLECULE
DQX
   64    69     1     0     0
SMALL
No Charge or Current Charge


@<TRIPOS>ATOM
      1 F1           2.6460    -0.8090     2.4710 f          1 DQX      -0.172000
      2 C2           2.8920     0.0880     1.4890 ca         1 DQX       0.202000
      3 C3           4.0060    -0.0690     0.6440 ca         1 DQX      -0.164300
      4 C4           4.2360     0.8990    -0.3530 ca         1 DQX       0.202000
      5 C5           3.3670     1.9910    -0.5060 ca         1 DQX      -0.152500
      6 C7           2.2370     2.1490     0.3280 cp         1 DQX       0.031000
      7 C8           2.0250     1.1800     1.3370 ca         1 DQX      -0.152500
      8 C10          1.3220     3.3250     0.1600 cp         1 DQX      -0.018000
      9 C11         -0.0960     3.1810     0.0550 ca         1 DQX       0.259000
     10 N12         -0.6620     1.9400     0.0860 nb         1 DQX      -0.654000
     11 C13         -2.0120     1.8580    -0.0210 ca         1 DQX       0.434500
     12 C14         -2.8080     3.0290    -0.1660 ca         1 DQX       0.304900
     13 N16         -2.2700     4.2770    -0.2090 nb         1 DQX      -0.624000
     14 C17         -0.9160     4.3540    -0.1020 ca         1 DQX       0.207000
     15 C18         -0.3070     5.6200    -0.1530 ca         1 DQX      -0.060000
     16 C20          1.0840     5.7570    -0.0600 ca         1 DQX      -0.111000
     17 C22          1.8880     4.6210     0.0920 ca         1 DQX      -0.084000
     18 C24         -2.5800     0.5100     0.0220 cc         1 DQX      -0.296500
     19 C25         -3.9160     0.2460    -0.0770 cd         1 DQX      -0.135000
     20 N27         -3.9890    -1.1510     0.0140 na         1 DQX       0.140800
     21 N28         -2.7450    -1.7540     0.1640 nd         1 DQX      -0.531800
     22 C29         -1.9260    -0.7210     0.1640 cc         1 DQX       0.292900
     23 C31         -5.2380    -1.9470    -0.0410 c6         1 DQX       0.092300
     24 C33         -6.1900    -1.5930     1.1320 c6         1 DQX      -0.091900
     25 C36         -7.4990    -2.4090     1.0370 c6         1 DQX       0.160300
     26 N39         -8.1530    -2.2120    -0.2780 n7         1 DQX      -0.866400
     27 C41         -7.2830    -2.5800    -1.4210 c6         1 DQX       0.160300
     28 C44         -5.9670    -1.7680    -1.3990 c6         1 DQX      -0.091900
     29 F47          5.2970     0.7890    -1.1840 f          1 DQX      -0.172000
     30 C48          4.9430    -1.2610     0.8120 c3         1 DQX       0.226100
     31 N51          4.4080    -2.5110     0.2210 n3         1 DQX      -0.710600
     32 C52          5.2340    -3.7090     0.5660 c6         1 DQX       0.126300
     33 C55          4.6420    -5.0140    -0.0440 c6         1 DQX       0.153100
     34 O58          4.4800    -4.8720    -1.4760 os         1 DQX      -0.451000
     35 C59          3.6190    -3.7630    -1.8310 c6         1 DQX       0.153100
     36 C62          4.1870    -2.4300    -1.2590 c6         1 DQX       0.126300
     37 H5           3.5670     2.7170    -1.2890 ha         1 DQX       0.142000
     38 H8           1.1790     1.2780     2.0120 ha         1 DQX       0.142000
     39 H14         -3.8910     2.9720    -0.2520 h4         1 DQX       0.026100
     40 H18         -0.9250     6.5070    -0.2710 ha         1 DQX       0.135000
     41 H20          1.5390     6.7450    -0.1040 ha         1 DQX       0.122000
     42 H22          2.9660     4.7430     0.1710 ha         1 DQX       0.122000
     43 H25         -4.7860     0.8820    -0.1970 h4         1 DQX       0.156000
     44 H29         -0.8630    -0.8950     0.2700 h4         1 DQX       0.057100
     45 H31         -4.9620    -3.0070     0.0570 h1         1 DQX       0.080700
     46 H33         -5.6960    -1.7950     2.0920 hc         1 DQX       0.061700
     47 H33A        -6.4290    -0.5210     1.1200 hc         1 DQX       0.061700
     48 H36         -7.2780    -3.4780     1.1810 h1         1 DQX       0.036700
     49 H36A        -8.1850    -2.1000     1.8400 h1         1 DQX       0.036700
     50 HN39        -9.0070    -2.7850    -0.3140 hn         1 DQX       0.418000
     51 H41         -7.0530    -3.6550    -1.3770 h1         1 DQX       0.036700
     52 H41A        -7.8160    -2.3920    -2.3650 h1         1 DQX       0.036700
     53 H44         -6.1930    -0.7080    -1.5740 hc         1 DQX       0.061700
     54 H44A        -5.3170    -2.0940    -2.2220 hc         1 DQX       0.061700
     55 H48          5.9240    -1.0280     0.3750 h1         1 DQX       0.049200
     56 H48A         5.1160    -1.4070     1.8880 h1         1 DQX       0.049200
     57 H52          6.2620    -3.5840     0.1960 h1         1 DQX       0.042700
     58 H52A         5.2970    -3.8280     1.6580 h1         1 DQX       0.042700
     59 H55          5.3110    -5.8610     0.1610 h1         1 DQX       0.051200
     60 H55A         3.6650    -5.2320     0.4120 h1         1 DQX       0.051200
     61 H59          3.5470    -3.7000    -2.9260 h1         1 DQX       0.051200
     62 H59A         2.6110    -3.9440    -1.4310 h1         1 DQX       0.051200
     63 H62          3.4810    -1.6230    -1.5010 h1         1 DQX       0.042700
     64 H62A         5.1310    -2.1990    -1.7740 h1         1 DQX       0.042700
@<TRIPOS>BOND
     1     1     2 1   
     2     2     3 ar  
     3     2     7 ar  
     4     3     4 ar  
     5     3    30 1   
     6     4     5 ar  
     7     4    29 1   
     8     5     6 ar  
     9     5    37 1   
    10     6     7 ar  
    11     6     8 1   
    12     7    38 1   
    13     8     9 ar  
    14     8    17 ar  
    15     9    10 ar  
    16     9    14 ar  
    17    10    11 ar  
    18    11    12 ar  
    19    11    18 1   
    20    12    13 ar  
    21    12    39 1   
    22    13    14 ar  
    23    14    15 ar  
    24    15    16 ar  
    25    15    40 1   
    26    16    17 ar  
    27    16    41 1   
    28    17    42 1   
    29    18    19 2   
    30    18    22 1   
    31    19    20 1   
    32    19    43 1   
    33    20    21 1   
    34    20    23 1   
    35    21    22 2   
    36    22    44 1   
    37    23    24 1   
    38    23    28 1   
    39    23    45 1   
    40    24    25 1   
    41    24    46 1   
    42    24    47 1   
    43    25    26 1   
    44    25    48 1   
    45    25    49 1   
    46    26    27 1   
    47    26    50 1   
    48    27    28 1   
    49    27    51 1   
    50    27    52 1   
    51    28    53 1   
    52    28    54 1   
    53    30    31 1   
    54    30    55 1   
    55    30    56 1   
    56    31    32 1   
    57    31    36 1   
    58    32    33 1   
    59    32    57 1   
    60    32    58 1   
    61    33    34 1   
    62    33    59 1   
    63    33    60 1   
    64    34    35 1   
    65    35    36 1   
    66    35    61 1   
    67    35    62 1   
    68    36    63 1   
    69    36    64 1   
@<TRIPOS>SUBSTRUCTURE
     1 DQX         1 TEMP              0 ****  ****    0 ROOT
