@<TRIPOS>MOLECULE
DQX
   64    69     1     0     0
SMALL
bcc


@<TRIPOS>ATOM
      1 F1           2.3100    -0.8390     2.2640 f          1 DQX      -0.136900
      2 C2           2.6750     0.0920     1.3730 ca         1 DQX       0.166900
      3 C3           3.8850    -0.0830     0.7100 ca         1 DQX      -0.164300
      4 C4           4.2070     0.9220    -0.1870 ca         1 DQX       0.166900
      5 C5           3.4080     2.0250    -0.4240 ca         1 DQX      -0.170500
      6 C7           2.2060     2.1570     0.2660 cp         1 DQX       0.031000
      7 C8           1.8410     1.1710     1.1840 ca         1 DQX      -0.170500
      8 C10          1.3690     3.3530     0.0470 cp         1 DQX      -0.083300
      9 C11         -0.0400     3.2530    -0.1350 ca         1 DQX       0.324300
     10 N12         -0.6330     2.0440    -0.1410 nb         1 DQX      -0.654000
     11 C13         -1.9310     1.9820    -0.2940 ca         1 DQX       0.434500
     12 C14         -2.6950     3.1750    -0.4650 ca         1 DQX       0.304900
     13 N16         -2.1490     4.3510    -0.4890 nb         1 DQX      -0.624000
     14 C17         -0.8040     4.4290    -0.3270 ca         1 DQX       0.272300
     15 C18         -0.1770     5.6880    -0.3570 ca         1 DQX      -0.143300
     16 C20          1.1800     5.7670    -0.1950 ca         1 DQX      -0.129000
     17 C22          1.9440     4.6030     0.0080 ca         1 DQX      -0.102000
     18 C24         -2.5520     0.6730    -0.2830 cc         1 DQX      -0.361800
     19 C25         -3.8890     0.3310    -0.3950 cd         1 DQX      -0.102300
     20 N27         -3.9540    -1.0050    -0.3350 na         1 DQX       0.119400
     21 N28         -2.7520    -1.5650    -0.1840 nd         1 DQX      -0.531800
     22 C29         -1.8960    -0.5680    -0.1520 cc         1 DQX       0.358200
     23 C31         -5.1280    -1.8670    -0.3450 c6         1 DQX       0.063000
     24 C33         -5.5070    -2.3050     1.0680 c6         1 DQX      -0.091900
     25 C36         -6.7080    -3.2400     1.0050 c6         1 DQX       0.160300
     26 N39         -7.8140    -2.5790     0.3370 n7         1 DQX      -0.811200
     27 C41         -7.4800    -2.2180    -1.0280 c6         1 DQX       0.160300
     28 C44         -6.3220    -1.2270    -1.0360 c6         1 DQX      -0.091900
     29 F47          5.3510     0.8170    -0.8800 f          1 DQX      -0.136900
     30 C48          4.7330    -1.3010     0.9470 c3         1 DQX       0.226100
     31 N51          4.1520    -2.4770     0.3250 n3         1 DQX      -0.710600
     32 C52          4.7740    -3.6940     0.8120 c6         1 DQX       0.126300
     33 C55          4.1100    -4.9030     0.1830 c6         1 DQX       0.129900
     34 O58          4.1700    -4.8530    -1.2250 os         1 DQX      -0.404600
     35 C59          3.5690    -3.6730    -1.7090 c6         1 DQX       0.129900
     36 C62          4.2160    -2.4320    -1.1240 c6         1 DQX       0.126300
     37 H5           3.7170     2.7600    -1.1550 ha         1 DQX       0.160000
     38 H8           0.9270     1.2440     1.7540 ha         1 DQX       0.160000
     39 H14         -3.7720     3.1230    -0.5880 h4         1 DQX       0.026100
     40 H18         -0.7830     6.5720    -0.5070 ha         1 DQX       0.153000
     41 H20          1.6770     6.7280    -0.2100 ha         1 DQX       0.140000
     42 H22          3.0120     4.7020     0.1570 ha         1 DQX       0.140000
     43 H25         -4.7690     0.9440    -0.5070 h4         1 DQX       0.174000
     44 H29         -0.8380    -0.7500    -0.0460 h4         1 DQX       0.057100
     45 H31         -4.8310    -2.7500    -0.9190 h1         1 DQX       0.080700
     46 H33         -4.6660    -2.8090     1.5460 hc         1 DQX       0.061700
     47 H33A        -5.7560    -1.4250     1.6670 hc         1 DQX       0.061700
     48 H36         -6.4040    -4.1710     0.5010 h1         1 DQX       0.036700
     49 H36A        -7.0140    -3.5130     2.0160 h1         1 DQX       0.036700
     50 HN39        -8.6220    -3.1880     0.3380 hn         1 DQX       0.362800
     51 H41         -7.1990    -3.0900    -1.6420 h1         1 DQX       0.036700
     52 H41A        -8.3520    -1.7640    -1.5010 h1         1 DQX       0.036700
     53 H44         -6.6320    -0.3210    -0.5080 hc         1 DQX       0.061700
     54 H44A        -6.0730    -0.9510    -2.0620 hc         1 DQX       0.061700
     55 H48          5.7620    -1.1180     0.6080 h1         1 DQX       0.049200
     56 H48A         4.7960    -1.4840     2.0210 h1         1 DQX       0.049200
     57 H52          5.8580    -3.7180     0.6010 h1         1 DQX       0.042700
     58 H52A         4.6570    -3.7500     1.8980 h1         1 DQX       0.042700
     59 H55          4.6170    -5.8160     0.5000 h1         1 DQX       0.051200
     60 H55A         3.0660    -4.9620     0.5200 h1         1 DQX       0.051200
     61 H59          3.6750    -3.6730    -2.7950 h1         1 DQX       0.051200
     62 H59A         2.4950    -3.6640    -1.4750 h1         1 DQX       0.051200
     63 H62          3.6770    -1.5580    -1.4960 h1         1 DQX       0.042700
     64 H62A         5.2570    -2.3510    -1.4840 h1         1 DQX       0.042700
@<TRIPOS>BOND
     1     1     2 1   
     2     2     3 ar  
     3     2     7 ar  
     4     3     4 ar  
     5     3    30 1   
     6     4     5 ar  
     7     4    29 1   
     8     5     6 ar  
     9     5    37 1   
    10     6     7 ar  
    11     6     8 1   
    12     7    38 1   
    13     8     9 ar  
    14     8    17 ar  
    15     9    10 ar  
    16     9    14 ar  
    17    10    11 ar  
    18    11    12 ar  
    19    11    18 1   
    20    12    13 ar  
    21    12    39 1   
    22    13    14 ar  
    23    14    15 ar  
    24    15    16 ar  
    25    15    40 1   
    26    16    17 ar  
    27    16    41 1   
    28    17    42 1   
    29    18    19 2   
    30    18    22 1   
    31    19    20 1   
    32    19    43 1   
    33    20    21 1   
    34    20    23 1   
    35    21    22 2   
    36    22    44 1   
    37    23    24 1   
    38    23    28 1   
    39    23    45 1   
    40    24    25 1   
    41    24    46 1   
    42    24    47 1   
    43    25    26 1   
    44    25    48 1   
    45    25    49 1   
    46    26    27 1   
    47    26    50 1   
    48    27    28 1   
    49    27    51 1   
    50    27    52 1   
    51    28    53 1   
    52    28    54 1   
    53    30    31 1   
    54    30    55 1   
    55    30    56 1   
    56    31    32 1   
    57    31    36 1   
    58    32    33 1   
    59    32    57 1   
    60    32    58 1   
    61    33    34 1   
    62    33    59 1   
    63    33    60 1   
    64    34    35 1   
    65    35    36 1   
    66    35    61 1   
    67    35    62 1   
    68    36    63 1   
    69    36    64 1   
@<TRIPOS>SUBSTRUCTURE
     1 DQX         1 TEMP              0 ****  ****    0 ROOT
