@<TRIPOS>MOLECULE
DQY
   19    17     1     0     0
SMALL
abcg2


@<TRIPOS>ATOM
      1 S           -1.8390     0.2280     0.4770 s4         1 DQY      -0.060900
      2 C1           2.4350    -0.1780     0.0580 c          1 DQY       0.715000
      3 O1           2.5780    -1.4050    -0.1020 o          1 DQY      -0.744500
      4 C2           1.0060     0.3570     0.2910 c3         1 DQY      -0.171400
      5 O2           3.3490     0.6750     0.0760 o          1 DQY      -0.744500
      6 C3          -0.1260    -0.5360    -0.1670 c3         1 DQY      -0.092100
      7 CM1         -1.8490     1.4680    -0.8420 c3         1 DQY       0.064200
      8 CM2         -2.7440    -1.2720     0.0220 c3         1 DQY       0.064200
      9 H2           0.9010     0.5380     1.3700 hc         1 DQY       0.003200
     10 H2A          0.9380     1.3500    -0.1640 hc         1 DQY       0.003200
     11 H3          -0.0340    -1.5180     0.3010 h1         1 DQY       0.040200
     12 H3A         -0.1230    -0.6880    -1.2510 h1         1 DQY       0.040200
     13 HM1         -0.8400     1.6830    -1.1830 h1         1 DQY       0.076367
     14 HM1A        -2.4340     1.0820    -1.6750 h1         1 DQY       0.076367
     15 HM1B        -2.3350     2.3570    -0.4480 h1         1 DQY       0.076367
     16 HM2         -2.0880    -2.1380     0.0600 h1         1 DQY       0.076367
     17 HM2A        -3.5770    -1.3700     0.7150 h1         1 DQY       0.076367
     18 HM2B        -3.1340    -1.1600    -0.9890 h1         1 DQY       0.076367
     19 HS          -3.3160     0.8140     0.7840 DU         1 DQY      -0.574000
@<TRIPOS>BOND
     1     1     6 1   
     2     1     7 1   
     3     1     8 1   
     4     2     3 1   
     5     2     4 1   
     6     2     5 1   
     7     4     6 1   
     8     4     9 1   
     9     4    10 1   
    10     6    11 1   
    11     6    12 1   
    12     7    13 1   
    13     7    14 1   
    14     7    15 1   
    15     8    16 1   
    16     8    17 1   
    17     8    18 1   
@<TRIPOS>SUBSTRUCTURE
     1 DQY         1 TEMP              0 ****  ****    0 ROOT
