@<TRIPOS>MOLECULE
DQZ
   20    20     1     0     0
SMALL
No Charge or Current Charge


@<TRIPOS>ATOM
      1 C4           0.2990    -1.2350     0.2810 ca         1 DQZ      -0.118000
      2 C5           0.9990    -0.0410     0.5470 ca         1 DQZ      -0.027300
      3 C6           2.5070    -0.0660     0.7660 c3         1 DQZ      -0.026100
      4 C7           3.2940     0.1140    -0.5540 c3         1 DQZ      -0.204400
      5 C8           4.8050     0.0800    -0.2740 c          1 DQZ       0.718000
      6 Br          -3.6790     0.0390    -0.1400 br         1 DQZ      -0.148100
      7 C2          -1.7880     0.0070     0.1380 ca         1 DQZ      -0.035900
      8 C1          -1.0980     1.2010     0.4000 ca         1 DQZ      -0.091000
      9 C3          -1.0920    -1.2120     0.0770 ca         1 DQZ      -0.091000
     10 C            0.2930     1.1770     0.6040 ca         1 DQZ      -0.118000
     11 O            5.3630     1.1310     0.0010 o          1 DQZ      -0.737500
     12 O1           5.3690    -1.0040    -0.2870 o          1 DQZ      -0.737500
     13 H3           0.8340    -2.1800     0.2310 ha         1 DQZ       0.118000
     14 H4           2.7970     0.7240     1.4700 hc         1 DQZ       0.054200
     15 H7           2.8020    -1.0130     1.2360 hc         1 DQZ       0.054200
     16 H5           3.0010    -0.7280    -1.1940 hc         1 DQZ       0.021700
     17 H8           2.9970     1.0930    -0.9490 hc         1 DQZ       0.021700
     18 H1          -1.6370     2.1450     0.4460 ha         1 DQZ       0.113500
     19 H2          -1.6260    -2.1360    -0.1280 ha         1 DQZ       0.113500
     20 H            0.8230     2.1050     0.8050 ha         1 DQZ       0.118000
@<TRIPOS>BOND
     1     1     2 ar  
     2     1     9 ar  
     3     1    13 1   
     4     2     3 1   
     5     2    10 ar  
     6     3     4 1   
     7     3    14 1   
     8     3    15 1   
     9     4     5 1   
    10     4    16 1   
    11     4    17 1   
    12     5    11 1   
    13     5    12 1   
    14     6     7 1   
    15     7     8 ar  
    16     7     9 ar  
    17     8    10 ar  
    18     8    18 1   
    19     9    19 1   
    20    10    20 1   
@<TRIPOS>SUBSTRUCTURE
     1 DQZ         1 TEMP              0 ****  ****    0 ROOT
