@<TRIPOS>MOLECULE
DQZ
   20    20     1     0     0
SMALL
bcc


@<TRIPOS>ATOM
      1 C4           0.2570    -1.2250     0.5590 ca         1 DQZ      -0.136000
      2 C5           1.0000    -0.0500     0.6160 ca         1 DQZ      -0.027300
      3 C6           2.4840    -0.0720     0.8490 c3         1 DQZ      -0.026100
      4 C7           3.2570     0.0850    -0.4580 c3         1 DQZ      -0.204400
      5 C8           4.7910     0.1100    -0.3250 c          1 DQZ       0.928600
      6 BR          -3.5950     0.0410    -0.2780 br         1 DQZ      -0.148100
      7 C2          -1.7380     0.0040     0.0840 ca         1 DQZ      -0.035900
      8 C1          -1.0280     1.1950     0.1370 ca         1 DQZ      -0.109000
      9 C3          -1.1070    -1.2110     0.2950 ca         1 DQZ      -0.109000
     10 C            0.3320     1.1550     0.4030 ca         1 DQZ      -0.136000
     11 O            5.2770     0.0590     0.8220 o          1 DQZ      -0.842800
     12 O1           5.4250     0.1870    -1.3980 o          1 DQZ      -0.842800
     13 H3           0.7460    -2.1780     0.7270 ha         1 DQZ       0.136000
     14 H4           2.7600     0.7290     1.5370 hc         1 DQZ       0.054200
     15 H7           2.7670    -1.0090     1.3330 hc         1 DQZ       0.054200
     16 H5           2.9800    -0.7190    -1.1490 hc         1 DQZ       0.021700
     17 H8           2.9450     1.0090    -0.9570 hc         1 DQZ       0.021700
     18 H1          -1.5180     2.1460    -0.0250 ha         1 DQZ       0.131500
     19 H2          -1.6580    -2.1420     0.2570 ha         1 DQZ       0.131500
     20 H            0.8840     2.0870     0.4460 ha         1 DQZ       0.136000
@<TRIPOS>BOND
     1     1     2 ar  
     2     1     9 ar  
     3     1    13 1   
     4     2     3 1   
     5     2    10 ar  
     6     3     4 1   
     7     3    14 1   
     8     3    15 1   
     9     4     5 1   
    10     4    16 1   
    11     4    17 1   
    12     5    11 1   
    13     5    12 1   
    14     6     7 1   
    15     7     8 ar  
    16     7     9 ar  
    17     8    10 ar  
    18     8    18 1   
    19     9    19 1   
    20    10    20 1   
@<TRIPOS>SUBSTRUCTURE
     1 DQZ         1 TEMP              0 ****  ****    0 ROOT
