@<TRIPOS>MOLECULE
DR0
   33    32     1     0     0
SMALL
abcg2


@<TRIPOS>ATOM
      1 CAJ          5.5830    -0.2790     0.0190 c3         1 DR0      -0.091100
      2 CAI          4.3180     0.5680     0.0400 c3         1 DR0      -0.073400
      3 CAH          3.0500    -0.2760     0.0260 c3         1 DR0      -0.075400
      4 CAG          1.7770     0.5610     0.0370 c3         1 DR0      -0.075400
      5 CAF          0.5170    -0.3020     0.0130 c3         1 DR0      -0.099400
      6 CAE         -0.7100     0.5900     0.0020 c3         1 DR0       0.100600
      7 NAD         -2.0360    -0.1190    -0.0430 n4         1 DR0      -0.550000
      8 CAC         -2.1340    -0.9980    -1.2390 c3         1 DR0       0.072400
      9 CAK         -2.2520    -0.9200     1.1900 c3         1 DR0       0.072400
     10 CAB         -3.0950     0.9790    -0.1350 c3         1 DR0       0.347600
     11 OAA         -4.3640     0.4760    -0.1790 oh         1 DR0      -0.599000
     12 HAJ1         6.4820     0.3380     0.0310 hc         1 DR0       0.041033
     13 HAJ2         5.6260    -0.9430     0.8840 hc         1 DR0       0.041033
     14 HAJ3         5.6230    -0.9030    -0.8760 hc         1 DR0       0.041033
     15 HAI1         4.3180     1.2080     0.9270 hc         1 DR0       0.042700
     16 HAI2         4.3130     1.2420    -0.8220 hc         1 DR0       0.042700
     17 HAH1         3.0530    -0.9190    -0.8610 hc         1 DR0       0.044700
     18 HAH2         3.0510    -0.9490     0.8900 hc         1 DR0       0.044700
     19 HAG1         1.7670     1.2000     0.9260 hc         1 DR0       0.050700
     20 HAG2         1.7760     1.2330    -0.8270 hc         1 DR0       0.050700
     21 HAF1         0.5440    -0.9390    -0.8730 hc         1 DR0       0.064200
     22 HAF2         0.5200    -0.9590     0.8860 hc         1 DR0       0.064200
     23 HAE1        -0.7280     1.2200     0.8920 hx         1 DR0       0.089700
     24 HAE2        -0.6850     1.2430    -0.8720 hx         1 DR0       0.089700
     25 HAC1        -1.4380    -1.8260    -1.1410 hx         1 DR0       0.096700
     26 HAC2        -3.1430    -1.3910    -1.3140 hx         1 DR0       0.096700
     27 HAC3        -1.8940    -0.4200    -2.1280 hx         1 DR0       0.096700
     28 HAK1        -2.1960    -0.2670     2.0580 hx         1 DR0       0.096700
     29 HAK2        -3.2250    -1.3990     1.1500 hx         1 DR0       0.096700
     30 HAK3        -1.4920    -1.6920     1.2630 hx         1 DR0       0.096700
     31 HAB1        -2.9120     1.6380     0.7160 hx         1 DR0       0.100200
     32 HAB2        -2.8840     1.5080    -1.0640 hx         1 DR0       0.100200
     33 HAA         -4.7190     0.3830     0.7120 ho         1 DR0       0.484000
@<TRIPOS>BOND
     1     1     2 1   
     2     1    12 1   
     3     1    13 1   
     4     1    14 1   
     5     2     3 1   
     6     2    15 1   
     7     2    16 1   
     8     3     4 1   
     9     3    17 1   
    10     3    18 1   
    11     4     5 1   
    12     4    19 1   
    13     4    20 1   
    14     5     6 1   
    15     5    21 1   
    16     5    22 1   
    17     6     7 1   
    18     6    23 1   
    19     6    24 1   
    20     7     8 1   
    21     7     9 1   
    22     7    10 1   
    23     8    25 1   
    24     8    26 1   
    25     8    27 1   
    26     9    28 1   
    27     9    29 1   
    28     9    30 1   
    29    10    11 1   
    30    10    31 1   
    31    10    32 1   
    32    11    33 1   
@<TRIPOS>SUBSTRUCTURE
     1 DR0         1 TEMP              0 ****  ****    0 ROOT
