@<TRIPOS>MOLECULE
DR0
   33    32     1     0     0
SMALL
No Charge or Current Charge


@<TRIPOS>ATOM
      1 CAJ          5.6740    -0.3200     0.0700 c3         1 DR0      -0.091100
      2 CAI          4.4000     0.5470     0.0340 c3         1 DR0      -0.073400
      3 CAH          3.1010    -0.2880     0.0340 c3         1 DR0      -0.075400
      4 CAG          1.8240     0.5810    -0.0020 c3         1 DR0      -0.075400
      5 CAF          0.5270    -0.2540    -0.0020 c3         1 DR0      -0.099400
      6 CAE         -0.7380     0.6310    -0.0380 c3         1 DR0       0.100600
      7 NAD         -2.1080    -0.0730    -0.0500 n4         1 DR0      -0.550000
      8 CAC         -2.2180    -0.9750    -1.2950 c3         1 DR0       0.072400
      9 CAK         -2.2630    -0.9310     1.2210 c3         1 DR0       0.072400
     10 CAB         -3.1940     1.0100    -0.1060 c3         1 DR0       0.347600
     11 OAA         -4.4830     0.3980    -0.1700 oh         1 DR0      -0.599000
     12 HAJ1         6.5680     0.3140     0.0690 hc         1 DR0       0.041033
     13 HAJ2         5.6960    -0.9410     0.9740 hc         1 DR0       0.041033
     14 HAJ3         5.7200    -0.9800    -0.8050 hc         1 DR0       0.041033
     15 HAI1         4.4010     1.2190     0.9020 hc         1 DR0       0.042700
     16 HAI2         4.4250     1.1800    -0.8610 hc         1 DR0       0.042700
     17 HAH1         3.1040    -0.9600    -0.8330 hc         1 DR0       0.044700
     18 HAH2         3.0800    -0.9220     0.9300 hc         1 DR0       0.044700
     19 HAG1         1.8210     1.2530     0.8660 hc         1 DR0       0.050700
     20 HAG2         1.8450     1.2150    -0.8970 hc         1 DR0       0.050700
     21 HAF1         0.5320    -0.9230    -0.8700 hc         1 DR0       0.064200
     22 HAF2         0.5080    -0.8850     0.8950 hc         1 DR0       0.064200
     23 HAE1        -0.7180     1.2910     0.8320 hx         1 DR0       0.089700
     24 HAE2        -0.6880     1.2590    -0.9310 hx         1 DR0       0.089700
     25 HAC1        -1.4540    -1.7540    -1.2480 hx         1 DR0       0.096700
     26 HAC2        -3.2070    -1.4370    -1.3190 hx         1 DR0       0.096700
     27 HAC3        -2.0740    -0.3720    -2.1930 hx         1 DR0       0.096700
     28 HAK1        -2.2000    -0.2910     2.1040 hx         1 DR0       0.096700
     29 HAK2        -3.2260    -1.4450     1.2020 hx         1 DR0       0.096700
     30 HAK3        -1.4640    -1.6750     1.2520 hx         1 DR0       0.096700
     31 HAB1        -3.0760     1.6570     0.7690 hx         1 DR0       0.100200
     32 HAB2        -2.9930     1.6240    -0.9900 hx         1 DR0       0.100200
     33 HAA         -4.7110     0.1320     0.7450 ho         1 DR0       0.484000
@<TRIPOS>BOND
     1     1     2 1   
     2     1    12 1   
     3     1    13 1   
     4     1    14 1   
     5     2     3 1   
     6     2    15 1   
     7     2    16 1   
     8     3     4 1   
     9     3    17 1   
    10     3    18 1   
    11     4     5 1   
    12     4    19 1   
    13     4    20 1   
    14     5     6 1   
    15     5    21 1   
    16     5    22 1   
    17     6     7 1   
    18     6    23 1   
    19     6    24 1   
    20     7     8 1   
    21     7     9 1   
    22     7    10 1   
    23     8    25 1   
    24     8    26 1   
    25     8    27 1   
    26     9    28 1   
    27     9    29 1   
    28     9    30 1   
    29    10    11 1   
    30    10    31 1   
    31    10    32 1   
    32    11    33 1   
@<TRIPOS>SUBSTRUCTURE
     1 DR0         1 TEMP              0 ****  ****    0 ROOT
