@<TRIPOS>MOLECULE
DR1
   30    33     1     0     0
SMALL
No Charge or Current Charge


@<TRIPOS>ATOM
      1 C1           6.1050    12.3870    -3.5320 ca         1 DR1      -0.148000
      2 C2           6.6230    12.7370    -4.7890 ca         1 DR1      -0.067000
      3 C3           7.9100    13.2780    -4.8930 ca         1 DR1      -0.130000
      4 C4           8.6730    13.4870    -3.7360 ca         1 DR1      -0.061000
      5 C5           8.1620    13.1440    -2.4690 ca         1 DR1      -0.085000
      6 C6           8.9700    13.4460    -1.2920 cc         1 DR1      -0.016000
      7 C7           8.3390    13.2340    -0.0970 cd         1 DR1       0.112400
      8 N8           8.9660    13.5570     1.0990 nd         1 DR1      -0.337400
      9 C9           7.9660    13.1550     2.0090 ca         1 DR1       0.048000
     10 C10          8.0510    13.2620     3.4050 ca         1 DR1      -0.113000
     11 C11          6.9600    12.8360     4.1920 ca         1 DR1      -0.077000
     12 C12          5.7950    12.3180     3.5810 ca         1 DR1      -0.161000
     13 C13          5.7090    12.2110     2.1790 ca         1 DR1      -0.045000
     14 C14          6.8160    12.6240     1.4210 ca         1 DR1      -0.204000
     15 C15          7.0520    12.6630     0.0010 cd         1 DR1      -0.059000
     16 N16          6.3220    12.1700    -1.0900 na         1 DR1       0.075000
     17 C17          6.8650    12.5620    -2.3470 ca         1 DR1      -0.024000
     18 C18          5.1900    11.2300    -0.9880 c3         1 DR1       0.035900
     19 HC1          5.0960    11.9840    -3.4980 ha         1 DR1       0.118000
     20 HC2          6.0240    12.5880    -5.6850 ha         1 DR1       0.119000
     21 HC3          8.3110    13.5500    -5.8670 ha         1 DR1       0.123000
     22 HC4          9.6630    13.9310    -3.8230 ha         1 DR1       0.123000
     23 HC6          9.9660    13.8730    -1.3410 ha         1 DR1       0.140000
     24 H10          8.9430    13.6700     3.8730 ha         1 DR1       0.126000
     25 H11          7.0130    12.9150     5.2750 ha         1 DR1       0.107000
     26 H12          4.9560    12.0040     4.1980 ha         1 DR1       0.108000
     27 H13          4.8040    11.8300     1.7150 ha         1 DR1       0.095000
     28 H181         4.2470    11.7890    -0.9660 h1         1 DR1       0.065367
     29 H182         5.1910    10.5360    -1.8360 h1         1 DR1       0.065367
     30 H183         5.2870    10.6340    -0.0740 h1         1 DR1       0.065367
@<TRIPOS>BOND
     1     1     2 ar  
     2     1    17 ar  
     3     1    19 1   
     4     2     3 ar  
     5     2    20 1   
     6     3     4 ar  
     7     3    21 1   
     8     4     5 ar  
     9     4    22 1   
    10     5     6 1   
    11     5    17 ar  
    12     6     7 2   
    13     6    23 1   
    14     7     8 1   
    15     7    15 1   
    16     8     9 2   
    17     9    10 ar  
    18     9    14 ar  
    19    10    11 ar  
    20    10    24 1   
    21    11    12 ar  
    22    11    25 1   
    23    12    13 ar  
    24    12    26 1   
    25    13    14 ar  
    26    13    27 1   
    27    14    15 2   
    28    15    16 1   
    29    16    17 1   
    30    16    18 1   
    31    18    28 1   
    32    18    29 1   
    33    18    30 1   
@<TRIPOS>SUBSTRUCTURE
     1 DR1         1 TEMP              0 ****  ****    0 ROOT
