@<TRIPOS>MOLECULE
DR1
   30    33     1     0     0
SMALL
abcg2


@<TRIPOS>ATOM
      1 C1           6.2140    12.1860    -3.5520 ca         1 DR1      -0.148000
      2 C2           6.7540    12.4580    -4.7860 ca         1 DR1      -0.067000
      3 C3           7.9900    13.1220    -4.9100 ca         1 DR1      -0.130000
      4 C4           8.6650    13.5010    -3.7820 ca         1 DR1      -0.061000
      5 C5           8.1470    13.2410    -2.4870 ca         1 DR1      -0.085000
      6 C6           8.8580    13.6390    -1.3390 cc         1 DR1      -0.016000
      7 C7           8.3360    13.3790    -0.0950 cd         1 DR1       0.112400
      8 N8           8.8450    13.6680     1.1320 nd         1 DR1      -0.337400
      9 C9           7.9280    13.1910     2.0130 ca         1 DR1       0.048000
     10 C10          7.9970    13.2490     3.4210 ca         1 DR1      -0.113000
     11 C11          6.9680    12.7120     4.1620 ca         1 DR1      -0.077000
     12 C12          5.8470    12.1050     3.5470 ca         1 DR1      -0.161000
     13 C13          5.7470    12.0310     2.1760 ca         1 DR1      -0.045000
     14 C14          6.7820    12.5690     1.3810 ca         1 DR1      -0.204000
     15 C15          7.0560    12.6950    -0.0050 cd         1 DR1      -0.059000
     16 N16          6.3790    12.3120    -1.1120 na         1 DR1       0.075000
     17 C17          6.8890    12.5660    -2.3720 ca         1 DR1      -0.024000
     18 C18          5.1040    11.6150    -0.9050 c3         1 DR1       0.035900
     19 HC1          5.2650    11.6770    -3.5130 ha         1 DR1       0.118000
     20 HC2          6.2140    12.1550    -5.6740 ha         1 DR1       0.119000
     21 HC3          8.3990    13.3280    -5.8900 ha         1 DR1       0.123000
     22 HC4          9.6180    14.0110    -3.8500 ha         1 DR1       0.123000
     23 HC6          9.8090    14.1460    -1.4510 ha         1 DR1       0.140000
     24 H10          8.8510    13.7110     3.8990 ha         1 DR1       0.126000
     25 H11          7.0140    12.7520     5.2430 ha         1 DR1       0.107000
     26 H12          5.0590    11.6960     4.1660 ha         1 DR1       0.108000
     27 H13          4.8790    11.5650     1.7340 ha         1 DR1       0.095000
     28 H181         4.4280    12.2700    -0.3580 h1         1 DR1       0.065367
     29 H182         4.6470    11.3440    -1.8440 h1         1 DR1       0.065367
     30 H183         5.2860    10.7110    -0.3250 h1         1 DR1       0.065367
@<TRIPOS>BOND
     1     1     2 ar  
     2     1    17 ar  
     3     1    19 1   
     4     2     3 ar  
     5     2    20 1   
     6     3     4 ar  
     7     3    21 1   
     8     4     5 ar  
     9     4    22 1   
    10     5     6 1   
    11     5    17 ar  
    12     6     7 2   
    13     6    23 1   
    14     7     8 1   
    15     7    15 1   
    16     8     9 2   
    17     9    10 ar  
    18     9    14 ar  
    19    10    11 ar  
    20    10    24 1   
    21    11    12 ar  
    22    11    25 1   
    23    12    13 ar  
    24    12    26 1   
    25    13    14 ar  
    26    13    27 1   
    27    14    15 2   
    28    15    16 1   
    29    16    17 1   
    30    16    18 1   
    31    18    28 1   
    32    18    29 1   
    33    18    30 1   
@<TRIPOS>SUBSTRUCTURE
     1 DR1         1 TEMP              0 ****  ****    0 ROOT
