@<TRIPOS>MOLECULE
DR4
   54    54     1     0     0
SMALL
No Charge or Current Charge


@<TRIPOS>ATOM
      1 CAA         14.3650    61.5990    43.9040 c3         1 DR4       0.148900
      2 OAP         14.1890    62.9940    43.5970 os         1 DR4      -0.443100
      3 CAS         14.7080    63.4640    42.4180 c          1 DR4       0.592100
      4 OAB         15.3290    62.7830    41.6130 o          1 DR4      -0.491000
      5 CAO         14.4140    64.9530    42.2200 c3         1 DR4      -0.137400
      6 CAL         15.5950    65.8350    42.6890 c3         1 DR4      -0.072400
      7 CAJ         15.3130    67.3460    42.5210 c3         1 DR4      -0.074400
      8 CAH         16.5010    68.2890    42.8430 c3         1 DR4      -0.070400
      9 CAG         17.0310    68.2220    44.2980 c3         1 DR4      -0.075400
     10 CAI         18.2210    67.2490    44.4990 c3         1 DR4      -0.068400
     11 CAK         18.7030    67.1330    45.9660 c3         1 DR4      -0.099400
     12 CAM         17.6740    66.5270    46.9560 c3         1 DR4       0.170600
     13 O1          17.1390    65.2780    46.4640 os         1 DR4      -0.452000
     14 C1          17.9550    64.0930    46.5800 c6         1 DR4       0.369300
     15 O5          19.0280    64.1190    45.6220 os         1 DR4      -0.458000
     16 C5          19.9460    63.0020    45.7620 c6         1 DR4       0.183300
     17 C6          21.1600    63.2190    44.7990 c3         1 DR4       0.172600
     18 O6          21.8990    64.4300    45.0700 oh         1 DR4      -0.720000
     19 C4          19.2110    61.6400    45.5120 c6         1 DR4       0.146300
     20 O4          18.7680    61.4850    44.1490 oh         1 DR4      -0.707000
     21 C3          17.9730    61.5530    46.4580 c6         1 DR4       0.142300
     22 O3          17.1950    60.3780    46.1660 oh         1 DR4      -0.671000
     23 C2          17.0800    62.8230    46.3300 c6         1 DR4       0.104300
     24 O2          15.9460    62.7440    47.2310 oh         1 DR4      -0.731000
     25 HAA1        15.4300    61.3360    43.9410 h1         1 DR4       0.048033
     26 HAA2        13.9220    61.3640    44.8810 h1         1 DR4       0.048033
     27 HAA3        13.8780    60.9680    43.1490 h1         1 DR4       0.048033
     28 HAO1        13.5390    65.2280    42.8210 hc         1 DR4       0.067700
     29 HAO2        14.2250    65.1420    41.1570 hc         1 DR4       0.067700
     30 HAL1        16.4960    65.5660    42.1230 hc         1 DR4       0.058700
     31 HAL2        15.7950    65.6160    43.7450 hc         1 DR4       0.058700
     32 HAJ1        14.4600    67.6220    43.1530 hc         1 DR4       0.035200
     33 HAJ2        15.0030    67.5330    41.4860 hc         1 DR4       0.035200
     34 HAH1        16.1650    69.3160    42.6520 hc         1 DR4       0.038200
     35 HAH2        17.3210    68.1050    42.1380 hc         1 DR4       0.038200
     36 HAG1        16.2050    67.9590    44.9700 hc         1 DR4       0.035200
     37 HAG2        17.3610    69.2250    44.5940 hc         1 DR4       0.035200
     38 HAI1        19.0620    67.5970    43.8860 hc         1 DR4       0.046200
     39 HAI2        17.9690    66.2520    44.1230 hc         1 DR4       0.046200
     40 HAK1        18.9780    68.1310    46.3270 hc         1 DR4       0.050200
     41 HAK2        19.6280    66.5470    45.9970 hc         1 DR4       0.050200
     42 HAM1        16.8550    67.2460    47.0880 h1         1 DR4       0.041700
     43 HAM2        18.1430    66.3900    47.9390 h1         1 DR4       0.041700
     44 H1          18.3720    64.0470    47.5980 h2         1 DR4       0.026700
     45 H5          20.3380    63.0040    46.7900 h1         1 DR4       0.046700
     46 H61         20.7830    63.2330    43.7670 h1         1 DR4       0.039200
     47 H62         21.8240    62.3480    44.8890 h1         1 DR4       0.039200
     48 HO6         22.5770    64.5180    44.3600 ho         1 DR4       0.506000
     49 H4          19.9010    60.8240    45.7720 h1         1 DR4       0.047700
     50 HO4         18.0630    60.7960    44.2050 ho         1 DR4       0.517000
     51 H3          18.3430    61.5010    47.4940 h1         1 DR4       0.045700
     52 HO3         16.3540    60.5070    46.6630 ho         1 DR4       0.470000
     53 H2          16.7220    62.8890    45.2910 h1         1 DR4       0.083700
     54 HO2         15.5410    63.6450    47.2390 ho         1 DR4       0.526000
@<TRIPOS>BOND
     1     1     2 1   
     2     1    25 1   
     3     1    26 1   
     4     1    27 1   
     5     2     3 1   
     6     3     4 2   
     7     3     5 1   
     8     5     6 1   
     9     5    28 1   
    10     5    29 1   
    11     6     7 1   
    12     6    30 1   
    13     6    31 1   
    14     7     8 1   
    15     7    32 1   
    16     7    33 1   
    17     8     9 1   
    18     8    34 1   
    19     8    35 1   
    20     9    10 1   
    21     9    36 1   
    22     9    37 1   
    23    10    11 1   
    24    10    38 1   
    25    10    39 1   
    26    11    12 1   
    27    11    40 1   
    28    11    41 1   
    29    12    13 1   
    30    12    42 1   
    31    12    43 1   
    32    13    14 1   
    33    14    15 1   
    34    14    23 1   
    35    14    44 1   
    36    15    16 1   
    37    16    17 1   
    38    16    19 1   
    39    16    45 1   
    40    17    18 1   
    41    17    46 1   
    42    17    47 1   
    43    18    48 1   
    44    19    20 1   
    45    19    21 1   
    46    19    49 1   
    47    20    50 1   
    48    21    22 1   
    49    21    23 1   
    50    21    51 1   
    51    22    52 1   
    52    23    24 1   
    53    23    53 1   
    54    24    54 1   
@<TRIPOS>SUBSTRUCTURE
     1 DR4         1 TEMP              0 ****  ****    0 ROOT
