@<TRIPOS>MOLECULE
DR4
   54    54     1     0     0
SMALL
abcg2


@<TRIPOS>ATOM
      1 CAA         15.2400    61.5710    43.2030 c3         1 DR4       0.148900
      2 OAP         15.0020    62.9770    43.2620 os         1 DR4      -0.443100
      3 CAS         14.4820    63.5530    42.1830 c          1 DR4       0.592100
      4 OAB         14.2320    62.9440    41.1710 o          1 DR4      -0.491000
      5 CAO         14.2410    65.0240    42.3800 c3         1 DR4      -0.137400
      6 CAL         15.5020    65.8380    42.6850 c3         1 DR4      -0.072400
      7 CAJ         15.2010    67.3320    42.6290 c3         1 DR4      -0.074400
      8 CAH         16.4060    68.2360    42.8720 c3         1 DR4      -0.070400
      9 CAG         16.9840    68.1530    44.2920 c3         1 DR4      -0.075400
     10 CAI         18.2500    67.3070    44.3940 c3         1 DR4      -0.068400
     11 CAK         18.8100    67.1750    45.8070 c3         1 DR4      -0.099400
     12 CAM         17.8580    66.5480    46.8160 c3         1 DR4       0.170600
     13 O1          17.2740    65.3260    46.3850 os         1 DR4      -0.452000
     14 C1          17.9860    64.1770    46.6350 c6         1 DR4       0.369300
     15 O5          19.0090    64.0470    45.6810 os         1 DR4      -0.458000
     16 C5          19.8140    62.9070    45.8930 c6         1 DR4       0.183300
     17 C6          20.9860    62.9700    44.9380 c3         1 DR4       0.172600
     18 O6          21.8060    64.0530    45.3130 oh         1 DR4      -0.720000
     19 C4          18.9950    61.6310    45.7460 c6         1 DR4       0.146300
     20 O4          18.5830    61.5050    44.4070 oh         1 DR4      -0.707000
     21 C3          17.8130    61.6970    46.7120 c6         1 DR4       0.142300
     22 O3          17.0180    60.5570    46.5030 oh         1 DR4      -0.671000
     23 C2          17.0290    62.9900    46.5270 c6         1 DR4       0.104300
     24 O2          16.0360    63.0250    47.5220 oh         1 DR4      -0.731000
     25 HAA1        15.9950    61.3250    42.4560 h1         1 DR4       0.048033
     26 HAA2        15.5980    61.2840    44.1880 h1         1 DR4       0.048033
     27 HAA3        14.3260    61.0220    42.9800 h1         1 DR4       0.048033
     28 HAO1        13.5220    65.1560    43.1940 hc         1 DR4       0.067700
     29 HAO2        13.7670    65.4020    41.4740 hc         1 DR4       0.067700
     30 HAL1        16.2850    65.6000    41.9590 hc         1 DR4       0.058700
     31 HAL2        15.8930    65.5670    43.6690 hc         1 DR4       0.058700
     32 HAJ1        14.4220    67.5680    43.3600 hc         1 DR4       0.035200
     33 HAJ2        14.7760    67.5660    41.6480 hc         1 DR4       0.035200
     34 HAH1        16.0990    69.2640    42.6630 hc         1 DR4       0.038200
     35 HAH2        17.1860    68.0050    42.1390 hc         1 DR4       0.038200
     36 HAG1        16.2140    67.7630    44.9650 hc         1 DR4       0.035200
     37 HAG2        17.2110    69.1590    44.6590 hc         1 DR4       0.035200
     38 HAI1        19.0210    67.7570    43.7620 hc         1 DR4       0.046200
     39 HAI2        18.0740    66.3130    43.9730 hc         1 DR4       0.046200
     40 HAK1        19.0680    68.1660    46.1940 hc         1 DR4       0.050200
     41 HAK2        19.7440    66.6100    45.7750 hc         1 DR4       0.050200
     42 HAM1        17.0210    67.2210    47.0110 h1         1 DR4       0.041700
     43 HAM2        18.3760    66.4010    47.7720 h1         1 DR4       0.041700
     44 H1          18.4300    64.2010    47.6500 h2         1 DR4       0.026700
     45 H5          20.2100    62.9120    46.9220 h1         1 DR4       0.046700
     46 H61         20.6210    63.0760    43.9100 h1         1 DR4       0.039200
     47 H62         21.5260    62.0160    44.9940 h1         1 DR4       0.039200
     48 HO6         22.4910    64.1570    44.6470 ho         1 DR4       0.506000
     49 H4          19.6350    60.7870    46.0430 h1         1 DR4       0.047700
     50 HO4         18.0670    60.6960    44.3280 ho         1 DR4       0.517000
     51 H3          18.2300    61.7030    47.7330 h1         1 DR4       0.045700
     52 HO3         16.2250    60.6310    47.0450 ho         1 DR4       0.470000
     53 H2          16.5900    63.0070    45.5200 h1         1 DR4       0.083700
     54 HO2         15.4170    63.7330    47.3150 ho         1 DR4       0.526000
@<TRIPOS>BOND
     1     1     2 1   
     2     1    25 1   
     3     1    26 1   
     4     1    27 1   
     5     2     3 1   
     6     3     4 2   
     7     3     5 1   
     8     5     6 1   
     9     5    28 1   
    10     5    29 1   
    11     6     7 1   
    12     6    30 1   
    13     6    31 1   
    14     7     8 1   
    15     7    32 1   
    16     7    33 1   
    17     8     9 1   
    18     8    34 1   
    19     8    35 1   
    20     9    10 1   
    21     9    36 1   
    22     9    37 1   
    23    10    11 1   
    24    10    38 1   
    25    10    39 1   
    26    11    12 1   
    27    11    40 1   
    28    11    41 1   
    29    12    13 1   
    30    12    42 1   
    31    12    43 1   
    32    13    14 1   
    33    14    15 1   
    34    14    23 1   
    35    14    44 1   
    36    15    16 1   
    37    16    17 1   
    38    16    19 1   
    39    16    45 1   
    40    17    18 1   
    41    17    46 1   
    42    17    47 1   
    43    18    48 1   
    44    19    20 1   
    45    19    21 1   
    46    19    49 1   
    47    20    50 1   
    48    21    22 1   
    49    21    23 1   
    50    21    51 1   
    51    22    52 1   
    52    23    24 1   
    53    23    53 1   
    54    24    54 1   
@<TRIPOS>SUBSTRUCTURE
     1 DR4         1 TEMP              0 ****  ****    0 ROOT
