@<TRIPOS>MOLECULE
DR7
  103   105     1     0     0
SMALL
No Charge or Current Charge


@<TRIPOS>ATOM
      1 CAA         10.1410     1.5510     0.4180 c3         1 DR7       0.170900
      2 OBI          8.8740     1.6110    -0.2600 os         1 DR7      -0.452100
      3 CBK          7.7520     1.7140     0.5050 c          1 DR7       0.640100
      4 OAI          7.7190     1.7640     1.7240 o          1 DR7      -0.551000
      5 N            6.6610     1.7200    -0.3150 ns         1 DR7      -0.485900
      6 CA           5.2520     1.7450     0.1380 c3         1 DR7       0.053700
      7 CB           4.6120     3.1780     0.0080 c3         1 DR7      -0.046000
      8 CAE          4.6000     3.6580    -1.4710 c3         1 DR7      -0.087433
      9 CG2          3.1520     3.1720     0.5390 c3         1 DR7      -0.087433
     10 CG1          5.4220     4.1990     0.8560 c3         1 DR7      -0.087433
     11 C            4.4760     0.6280    -0.6230 c          1 DR7       0.586100
     12 O            4.7500     0.2870    -1.7690 o          1 DR7      -0.607100
     13 NBG          3.4860     0.0020     0.1050 ns         1 DR7      -0.492900
     14 CBT          2.8210    -1.2510    -0.2840 c3         1 DR7       0.107700
     15 CBA          3.4700    -2.4480     0.4620 c3         1 DR7      -0.045100
     16 CBO          4.9910    -2.4730     0.3310 ca         1 DR7      -0.086300
     17 CAT          5.8030    -1.9320     1.3490 ca         1 DR7      -0.101000
     18 CAP          7.2010    -1.9100     1.2060 ca         1 DR7      -0.109000
     19 CAN          7.7970    -2.4320     0.0470 ca         1 DR7      -0.107000
     20 CAQ          6.9950    -2.9780    -0.9690 ca         1 DR7      -0.109000
     21 CAU          5.5960    -2.9970    -0.8280 ca         1 DR7      -0.101000
     22 CBS          1.2810    -1.1730    -0.0780 c3         1 DR7       0.169300
     23 OAM          0.9760    -0.8040     1.2800 oh         1 DR7      -0.669000
     24 CBC          0.6060    -0.1450    -1.0170 c3         1 DR7       0.103800
     25 NBW         -0.8790    -0.1060    -0.9300 n3         1 DR7      -0.457600
     26 NBH         -1.4560    -1.2470    -1.5850 ns         1 DR7      -0.386300
     27 CBN         -2.5730    -1.9550    -1.1400 c          1 DR7       0.614100
     28 OAL         -3.1860    -2.6430    -1.9480 o          1 DR7      -0.602100
     29 CBV         -3.0050    -1.8560     0.3650 c3         1 DR7       0.078700
     30 CBY         -2.7200    -3.1810     1.1880 c3         1 DR7      -0.055000
     31 CAH         -1.2580    -3.6600     0.9890 c3         1 DR7      -0.090100
     32 CAF         -2.9220    -2.9240     2.7080 c3         1 DR7      -0.090100
     33 CAG         -3.6670    -4.3450     0.7670 c3         1 DR7      -0.090100
     34 NBF         -4.4410    -1.4940     0.4180 ns         1 DR7      -0.494900
     35 CBL         -5.0210    -0.6820     1.3480 c          1 DR7       0.643100
     36 OAJ         -4.4350    -0.1080     2.2520 o          1 DR7      -0.544000
     37 OBJ         -6.3660    -0.6700     1.1360 os         1 DR7      -0.458100
     38 CAB         -7.1790     0.0900     2.0490 c3         1 DR7       0.168900
     39 CBB         -1.4240     1.1550    -1.5020 c3         1 DR7       0.179100
     40 CBP         -2.9220     1.3600    -1.3010 ca         1 DR7      -0.094300
     41 CAW         -3.3940     2.0750    -0.1880 ca         1 DR7      -0.094500
     42 CAY         -4.7690     2.3120    -0.0250 ca         1 DR7      -0.084500
     43 CAX         -3.8440     0.8870    -2.2530 ca         1 DR7      -0.094500
     44 CAZ         -5.2210     1.1090    -2.0830 ca         1 DR7      -0.084500
     45 CBQ         -5.7200     1.8270    -0.9640 cp         1 DR7      -0.134500
     46 CBR         -7.1950     2.0570    -0.7750 cp         1 DR7       0.404500
     47 CAV         -8.1720     1.1740    -1.3040 ca         1 DR7      -0.144000
     48 CAR         -9.5360     1.4190    -1.0810 ca         1 DR7      -0.075000
     49 CAO         -9.8870     2.5470    -0.3260 ca         1 DR7      -0.166000
     50 CAS         -8.8700     3.3770     0.1740 ca         1 DR7       0.337900
     51 NBD         -7.5580     3.1380    -0.0410 nb         1 DR7      -0.674000
     52 HAA1        10.3070     2.4550     1.0190 h1         1 DR7       0.046700
     53 HAA2        10.1880     0.6780     1.0820 h1         1 DR7       0.046700
     54 HAA3        10.9590     1.4710    -0.3080 h1         1 DR7       0.046700
     55 HN           6.8520     1.6210    -1.3030 hn         1 DR7       0.344500
     56 HA           5.2330     1.4590     1.1980 h1         1 DR7       0.085700
     57 HAE1         4.0060     2.9880    -2.1040 hc         1 DR7       0.039144
     58 HAE2         4.1630     4.6610    -1.5510 hc         1 DR7       0.039144
     59 HAE3         5.6150     3.7050    -1.8840 hc         1 DR7       0.039144
     60 HG21         3.1060     2.7840     1.5640 hc         1 DR7       0.039144
     61 HG22         2.7340     4.1870     0.5470 hc         1 DR7       0.039144
     62 HG23         2.4970     2.5590    -0.0910 hc         1 DR7       0.039144
     63 HG11         6.4440     4.3160     0.4760 hc         1 DR7       0.039144
     64 HG12         4.9500     5.1890     0.8350 hc         1 DR7       0.039144
     65 HG13         5.4820     3.8780     1.9030 hc         1 DR7       0.039144
     66 HBG          3.3010     0.3540     1.0370 hn         1 DR7       0.325500
     67 HBT          2.9920    -1.4160    -1.3570 h1         1 DR7       0.084700
     68 HBA1         3.1900    -2.4070     1.5220 hc         1 DR7       0.061200
     69 HBA2         3.0440    -3.3820     0.0750 hc         1 DR7       0.061200
     70 HAT          5.3490    -1.5160     2.2460 ha         1 DR7       0.111000
     71 HAP          7.8200    -1.4830     1.9920 ha         1 DR7       0.113500
     72 HAN          8.8790    -2.4130    -0.0640 ha         1 DR7       0.111000
     73 HAQ          7.4560    -3.3810    -1.8680 ha         1 DR7       0.113500
     74 HAU          4.9820    -3.4100    -1.6260 ha         1 DR7       0.111000
     75 HBS          0.8620    -2.1610    -0.3100 h1         1 DR7       0.054700
     76 HAM          0.0590    -0.4510     1.2540 ho         1 DR7       0.468000
     77 HBC1         1.0150     0.8420    -0.7640 h1         1 DR7       0.061200
     78 HBC2         0.9140    -0.3510    -2.0510 h1         1 DR7       0.061200
     79 HBH         -1.2340    -1.3970    -2.5650 hn         1 DR7       0.296500
     80 HBV         -2.4280    -1.0370     0.8120 h1         1 DR7       0.098700
     81 HAH1        -0.5540    -2.9160     1.3710 hc         1 DR7       0.040367
     82 HAH2        -1.0730    -4.5910     1.5380 hc         1 DR7       0.040367
     83 HAH3        -1.0280    -3.8520    -0.0660 hc         1 DR7       0.040367
     84 HAF1        -3.9730    -2.7210     2.9440 hc         1 DR7       0.040367
     85 HAF2        -2.6210    -3.7980     3.2980 hc         1 DR7       0.040367
     86 HAF3        -2.3230    -2.0690     3.0450 hc         1 DR7       0.040367
     87 HAG1        -3.5260    -4.6200    -0.2840 hc         1 DR7       0.040367
     88 HAG2        -3.4700    -5.2420     1.3670 hc         1 DR7       0.040367
     89 HAG3        -4.7220    -4.0830     0.9130 hc         1 DR7       0.040367
     90 HBF         -5.0670    -1.8930    -0.2690 hn         1 DR7       0.336500
     91 HAB1        -7.0930    -0.3050     3.0690 h1         1 DR7       0.048033
     92 HAB2        -6.8750     1.1440     2.0580 h1         1 DR7       0.048033
     93 HAB3        -8.2340     0.0420     1.7510 h1         1 DR7       0.048033
     94 HBB1        -0.9090     2.0120    -1.0470 h1         1 DR7       0.052200
     95 HBB2        -1.2040     1.1990    -2.5770 h1         1 DR7       0.052200
     96 HAW         -2.6940     2.4540     0.5540 ha         1 DR7       0.117000
     97 HAY         -5.1020     2.8630     0.8510 ha         1 DR7       0.126500
     98 HAX         -3.4930     0.3470    -3.1290 ha         1 DR7       0.117000
     99 HAZ         -5.9010     0.7350    -2.8440 ha         1 DR7       0.126500
    100 HAV         -7.8720     0.2950    -1.8640 ha         1 DR7       0.128000
    101 HAR        -10.2970     0.7490    -1.4760 ha         1 DR7       0.120000
    102 HAO        -10.9290     2.7810    -0.1240 ha         1 DR7       0.125000
    103 HAS         -9.1130     4.2580     0.7670 h4         1 DR7       0.019100
@<TRIPOS>BOND
     1     1     2 1   
     2     1    52 1   
     3     1    53 1   
     4     1    54 1   
     5     2     3 1   
     6     3     4 2   
     7     3     5 1   
     8     5     6 1   
     9     5    55 1   
    10     6     7 1   
    11     6    11 1   
    12     6    56 1   
    13     7     8 1   
    14     7     9 1   
    15     7    10 1   
    16     8    57 1   
    17     8    58 1   
    18     8    59 1   
    19     9    60 1   
    20     9    61 1   
    21     9    62 1   
    22    10    63 1   
    23    10    64 1   
    24    10    65 1   
    25    11    12 2   
    26    11    13 1   
    27    13    14 1   
    28    13    66 1   
    29    14    15 1   
    30    14    22 1   
    31    14    67 1   
    32    15    16 1   
    33    15    68 1   
    34    15    69 1   
    35    16    17 ar  
    36    16    21 ar  
    37    17    18 ar  
    38    17    70 1   
    39    18    19 ar  
    40    18    71 1   
    41    19    20 ar  
    42    19    72 1   
    43    20    21 ar  
    44    20    73 1   
    45    21    74 1   
    46    22    23 1   
    47    22    24 1   
    48    22    75 1   
    49    23    76 1   
    50    24    25 1   
    51    24    77 1   
    52    24    78 1   
    53    25    26 1   
    54    25    39 1   
    55    26    27 1   
    56    26    79 1   
    57    27    28 2   
    58    27    29 1   
    59    29    30 1   
    60    29    34 1   
    61    29    80 1   
    62    30    31 1   
    63    30    32 1   
    64    30    33 1   
    65    31    81 1   
    66    31    82 1   
    67    31    83 1   
    68    32    84 1   
    69    32    85 1   
    70    32    86 1   
    71    33    87 1   
    72    33    88 1   
    73    33    89 1   
    74    34    35 1   
    75    34    90 1   
    76    35    36 2   
    77    35    37 1   
    78    37    38 1   
    79    38    91 1   
    80    38    92 1   
    81    38    93 1   
    82    39    40 1   
    83    39    94 1   
    84    39    95 1   
    85    40    41 ar  
    86    40    43 ar  
    87    41    42 ar  
    88    41    96 1   
    89    42    45 ar  
    90    42    97 1   
    91    43    44 ar  
    92    43    98 1   
    93    44    45 ar  
    94    44    99 1   
    95    45    46 1   
    96    46    47 ar  
    97    46    51 ar  
    98    47    48 ar  
    99    47   100 1   
   100    48    49 ar  
   101    48   101 1   
   102    49    50 ar  
   103    49   102 1   
   104    50    51 ar  
   105    50   103 1   
@<TRIPOS>SUBSTRUCTURE
     1 DR7         1 TEMP              0 ****  ****    0 ROOT
