@<TRIPOS>MOLECULE
DR7
  103   105     1     0     0
SMALL
bcc


@<TRIPOS>ATOM
      1 CAA          9.5820     1.1830     1.2550 c3         1 DR7       0.147700
      2 OBI          8.5160     1.3060     0.3230 os         1 DR7      -0.428900
      3 CBK          7.3020     1.5600     0.8220 c          1 DR7       0.756100
      4 OAI          7.0680     1.6620     2.0090 o          1 DR7      -0.600000
      5 N            6.4050     1.7060    -0.1720 ns         1 DR7      -0.552900
      6 CA           4.9880     1.8470     0.0580 c3         1 DR7       0.053700
      7 CB           4.4510     3.2360    -0.3790 c3         1 DR7      -0.046000
      8 CAE          4.7530     3.5390    -1.8470 c3         1 DR7      -0.087433
      9 CG2          2.9400     3.2940    -0.1480 c3         1 DR7      -0.087433
     10 CG1          5.1260     4.2960     0.4940 c3         1 DR7      -0.087433
     11 C            4.3010     0.6750    -0.6430 c          1 DR7       0.653100
     12 O            4.6210     0.3440    -1.7750 o          1 DR7      -0.607100
     13 NBG          3.3540     0.0500     0.0770 ns         1 DR7      -0.559900
     14 CBT          2.7480    -1.2040    -0.3100 c3         1 DR7       0.107700
     15 CBA          3.3440    -2.3640     0.5070 c3         1 DR7      -0.045100
     16 CBO          4.8390    -2.4180     0.3870 ca         1 DR7      -0.086300
     17 CAT          5.6530    -1.8180     1.3430 ca         1 DR7      -0.119000
     18 CAP          7.0350    -1.8160     1.2050 ca         1 DR7      -0.127000
     19 CAN          7.6250    -2.4160     0.1020 ca         1 DR7      -0.125000
     20 CAQ          6.8230    -3.0210    -0.8580 ca         1 DR7      -0.127000
     21 CAU          5.4430    -3.0200    -0.7140 ca         1 DR7      -0.119000
     22 CBS          1.2290    -1.1500    -0.1810 c3         1 DR7       0.146100
     23 OAM          0.8980    -0.8700     1.1610 oh         1 DR7      -0.606800
     24 CBC          0.6290    -0.1070    -1.1040 c3         1 DR7       0.103800
     25 NBW         -0.8240    -0.0350    -0.9580 n3         1 DR7      -0.457600
     26 NBH         -1.4230    -1.1120    -1.5950 ns         1 DR7      -0.453300
     27 CBN         -2.4970    -1.8060    -1.1430 c          1 DR7       0.681100
     28 OAL         -3.1490    -2.4800    -1.9250 o          1 DR7      -0.602100
     29 CBV         -2.8460    -1.7840     0.3420 c3         1 DR7       0.078700
     30 CBY         -2.6020    -3.1770     1.0130 c3         1 DR7      -0.055000
     31 CAH         -1.1980    -3.6800     0.6820 c3         1 DR7      -0.090100
     32 CAF         -2.6930    -3.0120     2.5330 c3         1 DR7      -0.090100
     33 CAG         -3.6300    -4.2240     0.5810 c3         1 DR7      -0.090100
     34 NBF         -4.2190    -1.3530     0.4390 ns         1 DR7      -0.561900
     35 CBL         -4.7000    -0.5860     1.4370 c          1 DR7       0.759100
     36 OAJ         -4.0440    -0.0630     2.3120 o          1 DR7      -0.593000
     37 OBJ         -6.0300    -0.4830     1.3400 os         1 DR7      -0.434900
     38 CAB         -6.6920     0.2920     2.3290 c3         1 DR7       0.145700
     39 CBB         -1.3300     1.2360    -1.5060 c3         1 DR7       0.179100
     40 CBP         -2.8020     1.4200    -1.2930 ca         1 DR7      -0.094300
     41 CAW         -3.2720     2.0740    -0.1590 ca         1 DR7      -0.112500
     42 CAY         -4.6270     2.2710     0.0370 ca         1 DR7      -0.102500
     43 CAX         -3.7270     0.9670    -2.2280 ca         1 DR7      -0.112500
     44 CAZ         -5.0870     1.1290    -2.0180 ca         1 DR7      -0.102500
     45 CBQ         -5.5560     1.7780    -0.8780 cp         1 DR7      -0.134500
     46 CBR         -7.0020     1.9360    -0.6220 cp         1 DR7       0.469800
     47 CAV         -7.9240     0.9920    -1.0750 ca         1 DR7      -0.227300
     48 CAR         -9.2650     1.1700    -0.7850 ca         1 DR7      -0.093000
     49 CAO         -9.6520     2.2770    -0.0440 ca         1 DR7      -0.249300
     50 CAS         -8.6640     3.1550     0.3730 ca         1 DR7       0.403200
     51 NBD         -7.3770     2.9940     0.0960 nb         1 DR7      -0.674000
     52 HAA1         9.7150     2.0930     1.8400 h1         1 DR7       0.046700
     53 HAA2         9.4350     0.3420     1.9330 h1         1 DR7       0.046700
     54 HAA3        10.4760     1.0080     0.6630 h1         1 DR7       0.046700
     55 HN           6.7000     1.4950    -1.1130 hn         1 DR7       0.344500
     56 HA           4.8260     1.7640     1.1350 h1         1 DR7       0.085700
     57 HAE1         4.2740     2.8350    -2.5250 hc         1 DR7       0.039144
     58 HAE2         4.3860     4.5370    -2.0940 hc         1 DR7       0.039144
     59 HAE3         5.8260     3.5330    -2.0480 hc         1 DR7       0.039144
     60 HG21         2.6740     3.0300     0.8780 hc         1 DR7       0.039144
     61 HG22         2.5730     4.3050    -0.3340 hc         1 DR7       0.039144
     62 HG23         2.3940     2.6270    -0.8180 hc         1 DR7       0.039144
     63 HG11         6.2070     4.3080     0.3500 hc         1 DR7       0.039144
     64 HG12         4.7510     5.2880     0.2350 hc         1 DR7       0.039144
     65 HG13         4.9270     4.1320     1.5550 hc         1 DR7       0.039144
     66 HBG          3.1880     0.3610     1.0220 hn         1 DR7       0.325500
     67 HBT          2.9820    -1.3690    -1.3630 h1         1 DR7       0.084700
     68 HBA1         3.0570    -2.2560     1.5560 hc         1 DR7       0.061200
     69 HBA2         2.8970    -3.2950     0.1500 hc         1 DR7       0.061200
     70 HAT          5.2040    -1.3460     2.2090 ha         1 DR7       0.129000
     71 HAP          7.6470    -1.3490     1.9660 ha         1 DR7       0.131500
     72 HAN          8.7020    -2.4170    -0.0090 ha         1 DR7       0.129000
     73 HAQ          7.2740    -3.4950    -1.7200 ha         1 DR7       0.131500
     74 HAU          4.8270    -3.4920    -1.4710 ha         1 DR7       0.129000
     75 HBS          0.8520    -2.1390    -0.4770 h1         1 DR7       0.054700
     76 HAM          0.0280    -0.4530     1.1620 ho         1 DR7       0.429000
     77 HBC1         1.0260     0.8740    -0.8350 h1         1 DR7       0.061200
     78 HBC2         0.9270    -0.3010    -2.1440 h1         1 DR7       0.061200
     79 HBH         -1.2760    -1.1780    -2.6010 hn         1 DR7       0.296500
     80 HBV         -2.2290    -1.0440     0.8510 h1         1 DR7       0.098700
     81 HAH1        -0.4380    -2.9740     1.0170 hc         1 DR7       0.040367
     82 HAH2        -1.0090    -4.6220     1.1990 hc         1 DR7       0.040367
     83 HAH3        -1.0540    -3.8670    -0.3840 hc         1 DR7       0.040367
     84 HAF1        -3.6940    -2.7400     2.8660 hc         1 DR7       0.040367
     85 HAF2        -2.4380    -3.9570     3.0170 hc         1 DR7       0.040367
     86 HAF3        -1.9970    -2.2550     2.8990 hc         1 DR7       0.040367
     87 HAG1        -3.5950    -4.4310    -0.4860 hc         1 DR7       0.040367
     88 HAG2        -3.4300    -5.1600     1.1070 hc         1 DR7       0.040367
     89 HAG3        -4.6470    -3.9250     0.8390 hc         1 DR7       0.040367
     90 HBF         -4.8780    -1.7490    -0.2130 hn         1 DR7       0.336500
     91 HAB1        -6.5880    -0.1480     3.3210 h1         1 DR7       0.048033
     92 HAB2        -6.3310     1.3200     2.3540 h1         1 DR7       0.048033
     93 HAB3        -7.7430     0.2950     2.0490 h1         1 DR7       0.048033
     94 HBB1        -0.7860     2.0350    -1.0020 h1         1 DR7       0.052200
     95 HBB2        -1.0920     1.3090    -2.5770 h1         1 DR7       0.052200
     96 HAW         -2.5700     2.4440     0.5790 ha         1 DR7       0.135000
     97 HAY         -4.9710     2.7910     0.9210 ha         1 DR7       0.144500
     98 HAX         -3.3860     0.4910    -3.1400 ha         1 DR7       0.135000
     99 HAZ         -5.7800     0.7680    -2.7680 ha         1 DR7       0.144500
    100 HAV         -7.5960     0.1210    -1.6250 ha         1 DR7       0.146000
    101 HAR         -9.9970     0.4470    -1.1220 ha         1 DR7       0.138000
    102 HAO        -10.6880     2.4560     0.2090 ha         1 DR7       0.143000
    103 HAS         -8.9240     4.0310     0.9580 h4         1 DR7       0.019100
@<TRIPOS>BOND
     1     1     2 1   
     2     1    52 1   
     3     1    53 1   
     4     1    54 1   
     5     2     3 1   
     6     3     4 2   
     7     3     5 1   
     8     5     6 1   
     9     5    55 1   
    10     6     7 1   
    11     6    11 1   
    12     6    56 1   
    13     7     8 1   
    14     7     9 1   
    15     7    10 1   
    16     8    57 1   
    17     8    58 1   
    18     8    59 1   
    19     9    60 1   
    20     9    61 1   
    21     9    62 1   
    22    10    63 1   
    23    10    64 1   
    24    10    65 1   
    25    11    12 2   
    26    11    13 1   
    27    13    14 1   
    28    13    66 1   
    29    14    15 1   
    30    14    22 1   
    31    14    67 1   
    32    15    16 1   
    33    15    68 1   
    34    15    69 1   
    35    16    17 ar  
    36    16    21 ar  
    37    17    18 ar  
    38    17    70 1   
    39    18    19 ar  
    40    18    71 1   
    41    19    20 ar  
    42    19    72 1   
    43    20    21 ar  
    44    20    73 1   
    45    21    74 1   
    46    22    23 1   
    47    22    24 1   
    48    22    75 1   
    49    23    76 1   
    50    24    25 1   
    51    24    77 1   
    52    24    78 1   
    53    25    26 1   
    54    25    39 1   
    55    26    27 1   
    56    26    79 1   
    57    27    28 2   
    58    27    29 1   
    59    29    30 1   
    60    29    34 1   
    61    29    80 1   
    62    30    31 1   
    63    30    32 1   
    64    30    33 1   
    65    31    81 1   
    66    31    82 1   
    67    31    83 1   
    68    32    84 1   
    69    32    85 1   
    70    32    86 1   
    71    33    87 1   
    72    33    88 1   
    73    33    89 1   
    74    34    35 1   
    75    34    90 1   
    76    35    36 2   
    77    35    37 1   
    78    37    38 1   
    79    38    91 1   
    80    38    92 1   
    81    38    93 1   
    82    39    40 1   
    83    39    94 1   
    84    39    95 1   
    85    40    41 ar  
    86    40    43 ar  
    87    41    42 ar  
    88    41    96 1   
    89    42    45 ar  
    90    42    97 1   
    91    43    44 ar  
    92    43    98 1   
    93    44    45 ar  
    94    44    99 1   
    95    45    46 1   
    96    46    47 ar  
    97    46    51 ar  
    98    47    48 ar  
    99    47   100 1   
   100    48    49 ar  
   101    48   101 1   
   102    49    50 ar  
   103    49   102 1   
   104    50    51 ar  
   105    50   103 1   
@<TRIPOS>SUBSTRUCTURE
     1 DR7         1 TEMP              0 ****  ****    0 ROOT
