@<TRIPOS>MOLECULE
DR9
  125   124     1     0     0
SMALL
abcg2


@<TRIPOS>ATOM
      1 CBX        -16.5030     3.5670     5.6620 c3         1 DR9      -0.088100
      2 CBV        -15.7050     2.7000     4.6980 c3         1 DR9      -0.075400
      3 CBS        -14.8940     3.5150     3.6970 c3         1 DR9      -0.075400
      4 CBH        -14.0940     2.6550     2.7270 c3         1 DR9      -0.075400
      5 CAQ        -13.3020     3.4700     1.7120 c3         1 DR9      -0.074400
      6 CAP        -12.5030     2.6080     0.7410 c3         1 DR9      -0.075400
      7 CAO        -11.7460     3.4240    -0.3000 c3         1 DR9      -0.072400
      8 CAN        -10.9340     2.5570    -1.2650 c3         1 DR9      -0.040200
      9 CAM        -10.3270     3.3640    -2.3690 c2         1 DR9      -0.228200
     10 CAL         -9.0370     3.6060    -2.5970 c2         1 DR9      -0.204200
     11 CAK         -7.8530     3.1070    -1.8300 c3         1 DR9      -0.045200
     12 CAJ         -6.9610     2.2030    -2.6820 c3         1 DR9      -0.071400
     13 CAI         -5.6500     1.8330    -2.0010 c3         1 DR9      -0.079400
     14 CAH         -4.7930     0.8960    -2.8420 c3         1 DR9      -0.069400
     15 CAG         -3.4100     0.6500    -2.2510 c3         1 DR9      -0.083400
     16 CAF         -2.6660    -0.4740    -2.9590 c3         1 DR9      -0.062400
     17 CAE         -1.2840    -0.7220    -2.3730 c3         1 DR9      -0.140400
     18 CAD         -0.5730    -1.8800    -3.0170 c          1 DR9       0.620100
     19 OAA         -1.1180    -2.8270    -3.5250 o          1 DR9      -0.501000
     20 OAC          0.7500    -1.7240    -2.9730 os         1 DR9      -0.429100
     21 CAB          1.5960    -2.7490    -3.4820 c3         1 DR9       0.174600
     22 CBE          2.2660    -3.5550    -2.3890 c3         1 DR9       0.152300
     23 CBK          1.3450    -4.4020    -1.5330 c3         1 DR9       0.216600
     24 OBL          0.5000    -3.5800    -0.7630 os         1 DR9      -0.581400
     25 PBM         -0.5820    -4.2810     0.2530 p5         1 DR9       1.399800
     26 OBU         -0.9980    -5.6210    -0.2750 o          1 DR9      -0.826500
     27 OBF         -0.0960    -4.1580     1.6650 o          1 DR9      -0.826500
     28 OBN         -1.7490    -3.1650    -0.0250 os         1 DR9      -0.583400
     29 CBO         -2.9650    -3.2740     0.6800 c3         1 DR9       0.200600
     30 CBP         -3.7180    -1.9590     0.5590 c3         1 DR9       0.153300
     31 OBG         -2.9950    -0.8830     1.1090 oh         1 DR9      -0.642000
     32 CBQ         -5.1080    -2.0870     1.1600 c3         1 DR9       0.119600
     33 OBR         -5.8130    -0.8900     0.9320 oh         1 DR9      -0.652000
     34 OBD          3.0190    -2.6330    -1.5930 os         1 DR9      -0.418100
     35 CBC          4.1780    -3.0180    -1.0650 c          1 DR9       0.601100
     36 OBJ          4.6170    -4.1370    -1.1600 o          1 DR9      -0.511000
     37 CBB          4.8530    -1.8800    -0.3500 c3         1 DR9      -0.141400
     38 CBA          6.2920    -2.1730     0.0470 c3         1 DR9      -0.066400
     39 CAZ          6.9660    -0.9540     0.6640 c3         1 DR9      -0.076400
     40 CAY          8.4280    -1.1980     1.0160 c3         1 DR9      -0.074400
     41 CAX          9.1160     0.0340     1.5910 c3         1 DR9      -0.075400
     42 CAW         10.5940    -0.1880     1.8870 c3         1 DR9      -0.072400
     43 CAV         11.2830     1.0590     2.4440 c3         1 DR9      -0.046200
     44 CAU         12.7250     0.8090     2.7630 c2         1 DR9      -0.209200
     45 CAT         13.7870     1.2850     2.1140 c2         1 DR9      -0.223200
     46 CAS         13.7880     2.2150     0.9410 c3         1 DR9      -0.042200
     47 CAR         14.2890     3.6120     1.3120 c3         1 DR9      -0.072400
     48 CBI         14.3310     4.5670     0.1260 c3         1 DR9      -0.075400
     49 CBT         14.8280     5.9580     0.4960 c3         1 DR9      -0.075400
     50 CBW         14.8410     6.9290    -0.6790 c3         1 DR9      -0.075400
     51 CBY         15.3420     8.3150    -0.2960 c3         1 DR9      -0.088100
     52 HBX1       -15.8450     4.2040     6.2550 hc         1 DR9       0.030033
     53 HBX2       -17.1950     4.2200     5.1260 hc         1 DR9       0.030033
     54 HBX3       -17.0900     2.9630     6.3540 hc         1 DR9       0.030033
     55 HBV1       -15.0320     2.0490     5.2640 hc         1 DR9       0.036700
     56 HBV2       -16.3840     2.0350     4.1540 hc         1 DR9       0.036700
     57 HBS1       -15.5690     4.1670     3.1320 hc         1 DR9       0.036200
     58 HBS2       -14.2130     4.1810     4.2400 hc         1 DR9       0.036200
     59 HBH1       -13.4080     2.0130     3.2920 hc         1 DR9       0.037200
     60 HBH2       -14.7740     1.9800     2.1960 hc         1 DR9       0.037200
     61 HAQ1       -13.9890     4.1090     1.1470 hc         1 DR9       0.036200
     62 HAQ2       -12.6210     4.1470     2.2400 hc         1 DR9       0.036200
     63 HAP1       -11.7970     1.9860     1.3020 hc         1 DR9       0.038200
     64 HAP2       -13.1810     1.9150     0.2300 hc         1 DR9       0.038200
     65 HAO1       -12.4580     4.0310    -0.8700 hc         1 DR9       0.037700
     66 HAO2       -11.0750     4.1300     0.1990 hc         1 DR9       0.037700
     67 HAN1       -10.1750     2.0030    -0.7080 hc         1 DR9       0.044700
     68 HAN2       -11.6010     1.8070    -1.7050 hc         1 DR9       0.044700
     69 HAM        -11.0460     3.8180    -3.0470 ha         1 DR9       0.158000
     70 HAL         -8.7920     4.2300    -3.4540 ha         1 DR9       0.160000
     71 HAK1        -7.2630     3.9690    -1.4980 hc         1 DR9       0.045200
     72 HAK2        -8.1560     2.5770    -0.9240 hc         1 DR9       0.045200
     73 HAJ1        -7.5130     1.2930    -2.9410 hc         1 DR9       0.035200
     74 HAJ2        -6.7410     2.7020    -3.6310 hc         1 DR9       0.035200
     75 HAI1        -5.0910     2.7490    -1.7790 hc         1 DR9       0.044700
     76 HAI2        -5.8510     1.3550    -1.0360 hc         1 DR9       0.044700
     77 HAH1        -5.3150    -0.0610    -2.9510 hc         1 DR9       0.031200
     78 HAH2        -4.6860     1.2990    -3.8550 hc         1 DR9       0.031200
     79 HAG1        -2.8220     1.5730    -2.2990 hc         1 DR9       0.049200
     80 HAG2        -3.5060     0.4110    -1.1880 hc         1 DR9       0.049200
     81 HAF1        -3.2600    -1.3900    -2.8980 hc         1 DR9       0.042200
     82 HAF2        -2.5780    -0.2380    -4.0240 hc         1 DR9       0.042200
     83 HAE1        -0.6660     0.1750    -2.4420 hc         1 DR9       0.087700
     84 HAE2        -1.3690    -0.9610    -1.3090 hc         1 DR9       0.087700
     85 HAB1         1.0560    -3.4290    -4.1400 h1         1 DR9       0.051200
     86 HAB2         2.3610    -2.2460    -4.0750 h1         1 DR9       0.051200
     87 HBE          2.9400    -4.2470    -2.9040 h1         1 DR9       0.046700
     88 HBK1         0.7780    -5.0540    -2.2050 h1         1 DR9       0.038200
     89 HBK2         1.9570    -5.0520    -0.8980 h1         1 DR9       0.038200
     90 HBO1        -3.5790    -4.0840     0.2710 h1         1 DR9       0.022200
     91 HBO2        -2.7950    -3.5020     1.7410 h1         1 DR9       0.022200
     92 HBP         -3.8290    -1.7240    -0.5050 h1         1 DR9       0.088700
     93 HBG         -2.8440    -1.0600     2.0450 ho         1 DR9       0.435000
     94 HBQ1        -5.6110    -2.9490     0.7010 h1         1 DR9       0.016700
     95 HBQ2        -5.0210    -2.3090     2.2340 h1         1 DR9       0.016700
     96 HBR         -6.6800    -0.9740     1.3380 ho         1 DR9       0.426000
     97 HBB1         4.8080    -0.9960    -0.9920 hc         1 DR9       0.074200
     98 HBB2         4.2540    -1.6310     0.5330 hc         1 DR9       0.074200
     99 HBA1         6.3230    -3.0080     0.7530 hc         1 DR9       0.050200
    100 HBA2         6.8590    -2.4890    -0.8330 hc         1 DR9       0.050200
    101 HAZ1         6.9020    -0.1140    -0.0360 hc         1 DR9       0.037200
    102 HAZ2         6.4190    -0.6460     1.5620 hc         1 DR9       0.037200
    103 HAY1         8.5000    -2.0240     1.7310 hc         1 DR9       0.038200
    104 HAY2         8.9650    -1.5240     0.1180 hc         1 DR9       0.038200
    105 HAX1         9.0120     0.8660     0.8850 hc         1 DR9       0.036700
    106 HAX2         8.6020     0.3440     2.5070 hc         1 DR9       0.036700
    107 HAW1        10.7070    -1.0140     2.5970 hc         1 DR9       0.039700
    108 HAW2        11.1080    -0.4970     0.9710 hc         1 DR9       0.039700
    109 HAV1        11.1750     1.8820     1.7340 hc         1 DR9       0.044200
    110 HAV2        10.7630     1.3700     3.3570 hc         1 DR9       0.044200
    111 HAU         12.9030     0.1440     3.6040 ha         1 DR9       0.164000
    112 HAT         14.7710     0.9970     2.4760 ha         1 DR9       0.162000
    113 HAS1        14.4370     1.8050     0.1600 hc         1 DR9       0.044200
    114 HAS2        12.7920     2.2930     0.4990 hc         1 DR9       0.044200
    115 HAR1        13.6420     4.0260     2.0930 hc         1 DR9       0.038200
    116 HAR2        15.2880     3.5340     1.7550 hc         1 DR9       0.038200
    117 HBI1        14.9720     4.1470    -0.6580 hc         1 DR9       0.037200
    118 HBI2        13.3290     4.6430    -0.3120 hc         1 DR9       0.037200
    119 HBT1        14.2000     6.3670     1.2950 hc         1 DR9       0.036200
    120 HBT2        15.8380     5.8830     0.9150 hc         1 DR9       0.036200
    121 HBW1        15.4670     6.5220    -1.4800 hc         1 DR9       0.036700
    122 HBW2        13.8320     7.0060    -1.0950 hc         1 DR9       0.036700
    123 HBY1        14.7190     8.7570     0.4840 hc         1 DR9       0.030033
    124 HBY2        16.3640     8.2750     0.0850 hc         1 DR9       0.030033
    125 HBY3        15.3340     8.9950    -1.1490 hc         1 DR9       0.030033
@<TRIPOS>BOND
     1     1     2 1   
     2     1    52 1   
     3     1    53 1   
     4     1    54 1   
     5     2     3 1   
     6     2    55 1   
     7     2    56 1   
     8     3     4 1   
     9     3    57 1   
    10     3    58 1   
    11     4     5 1   
    12     4    59 1   
    13     4    60 1   
    14     5     6 1   
    15     5    61 1   
    16     5    62 1   
    17     6     7 1   
    18     6    63 1   
    19     6    64 1   
    20     7     8 1   
    21     7    65 1   
    22     7    66 1   
    23     8     9 1   
    24     8    67 1   
    25     8    68 1   
    26     9    10 2   
    27     9    69 1   
    28    10    11 1   
    29    10    70 1   
    30    11    12 1   
    31    11    71 1   
    32    11    72 1   
    33    12    13 1   
    34    12    73 1   
    35    12    74 1   
    36    13    14 1   
    37    13    75 1   
    38    13    76 1   
    39    14    15 1   
    40    14    77 1   
    41    14    78 1   
    42    15    16 1   
    43    15    79 1   
    44    15    80 1   
    45    16    17 1   
    46    16    81 1   
    47    16    82 1   
    48    17    18 1   
    49    17    83 1   
    50    17    84 1   
    51    18    19 2   
    52    18    20 1   
    53    20    21 1   
    54    21    22 1   
    55    21    85 1   
    56    21    86 1   
    57    22    23 1   
    58    22    34 1   
    59    22    87 1   
    60    23    24 1   
    61    23    88 1   
    62    23    89 1   
    63    24    25 1   
    64    25    26 1   
    65    25    27 1   
    66    25    28 1   
    67    28    29 1   
    68    29    30 1   
    69    29    90 1   
    70    29    91 1   
    71    30    31 1   
    72    30    32 1   
    73    30    92 1   
    74    31    93 1   
    75    32    33 1   
    76    32    94 1   
    77    32    95 1   
    78    33    96 1   
    79    34    35 1   
    80    35    36 2   
    81    35    37 1   
    82    37    38 1   
    83    37    97 1   
    84    37    98 1   
    85    38    39 1   
    86    38    99 1   
    87    38   100 1   
    88    39    40 1   
    89    39   101 1   
    90    39   102 1   
    91    40    41 1   
    92    40   103 1   
    93    40   104 1   
    94    41    42 1   
    95    41   105 1   
    96    41   106 1   
    97    42    43 1   
    98    42   107 1   
    99    42   108 1   
   100    43    44 1   
   101    43   109 1   
   102    43   110 1   
   103    44    45 2   
   104    44   111 1   
   105    45    46 1   
   106    45   112 1   
   107    46    47 1   
   108    46   113 1   
   109    46   114 1   
   110    47    48 1   
   111    47   115 1   
   112    47   116 1   
   113    48    49 1   
   114    48   117 1   
   115    48   118 1   
   116    49    50 1   
   117    49   119 1   
   118    49   120 1   
   119    50    51 1   
   120    50   121 1   
   121    50   122 1   
   122    51   123 1   
   123    51   124 1   
   124    51   125 1   
@<TRIPOS>SUBSTRUCTURE
     1 DR9         1 TEMP              0 ****  ****    0 ROOT
