@<TRIPOS>MOLECULE
DR9
  125   124     1     0     0
SMALL
No Charge or Current Charge


@<TRIPOS>ATOM
      1 CBX        -15.8010     3.3600     2.7310 c3         1 DR9      -0.088100
      2 CBV        -14.7880     2.9800     1.6340 c3         1 DR9      -0.075400
      3 CBS        -13.6810     4.0400     1.4380 c3         1 DR9      -0.075400
      4 CBH        -12.6650     3.6570     0.3400 c3         1 DR9      -0.075400
      5 CAQ        -11.5570     4.7150     0.1440 c3         1 DR9      -0.074400
      6 CAP        -10.5400     4.3280    -0.9520 c3         1 DR9      -0.075400
      7 CAO         -9.4310     5.3850    -1.1520 c3         1 DR9      -0.072400
      8 CAN         -8.4090     4.9890    -2.2380 c3         1 DR9      -0.040200
      9 CAM         -7.3230     6.0340    -2.4130 c2         1 DR9      -0.228200
     10 CAL         -6.0990     6.0230    -1.8560 c2         1 DR9      -0.204200
     11 CAK         -5.5500     4.9860    -0.8940 c3         1 DR9      -0.045200
     12 CAJ         -4.7750     3.8670    -1.6210 c3         1 DR9      -0.071400
     13 CAI         -4.2220     2.7910    -0.6610 c3         1 DR9      -0.079400
     14 CAH         -3.4880     1.6470    -1.3930 c3         1 DR9      -0.069400
     15 CAG         -2.9420     0.5690    -0.4310 c3         1 DR9      -0.083400
     16 CAF         -2.2420    -0.5970    -1.1640 c3         1 DR9      -0.062400
     17 CAE         -1.7020    -1.6770    -0.1990 c3         1 DR9      -0.140400
     18 CAD         -1.0710    -2.8420    -0.9600 c          1 DR9       0.620100
     19 OAA         -1.7170    -3.7840    -1.4010 o          1 DR9      -0.501000
     20 OAC          0.2540    -2.6100    -1.2340 os         1 DR9      -0.429100
     21 CAB          1.0190    -3.6340    -1.9120 c3         1 DR9       0.174600
     22 CBE          1.7010    -4.6200    -0.9120 c3         1 DR9       0.152300
     23 CBK          0.7650    -5.3420     0.1130 c3         1 DR9       0.216600
     24 OBL          0.2640    -4.4140     1.0920 os         1 DR9      -0.581400
     25 PBM          0.6490    -4.5490     2.6480 p5         1 DR9       1.399800
     26 OBU          2.0680    -4.9540     2.8540 o          1 DR9      -0.826500
     27 OBF          0.3090    -3.3060     3.3970 o          1 DR9      -0.826500
     28 OBN         -0.3710    -5.7390     3.0300 os         1 DR9      -0.583400
     29 CBO         -1.7570    -5.5720     3.4130 c3         1 DR9       0.200600
     30 CBP         -2.5300    -4.5020     2.5680 c3         1 DR9       0.153300
     31 OBG         -2.2810    -3.1730     3.0830 oh         1 DR9      -0.642000
     32 CBQ         -4.0620    -4.7860     2.5750 c3         1 DR9       0.119600
     33 OBR         -4.7700    -3.9100     1.6790 oh         1 DR9      -0.652000
     34 OBD          2.7640    -3.9150    -0.2260 os         1 DR9      -0.418100
     35 CBC          3.7860    -4.6370     0.3350 c          1 DR9       0.601100
     36 OBJ          3.9720    -5.8340     0.1480 o          1 DR9      -0.511000
     37 CBB          4.8130    -3.7220     1.0050 c3         1 DR9      -0.141400
     38 CBA          5.8600    -3.2110    -0.0130 c3         1 DR9      -0.066400
     39 CAZ          6.9150    -2.2790     0.6220 c3         1 DR9      -0.076400
     40 CAY          7.9600    -1.7710    -0.3960 c3         1 DR9      -0.074400
     41 CAX          9.0160    -0.8380     0.2350 c3         1 DR9      -0.075400
     42 CAW         10.0600    -0.3320    -0.7850 c3         1 DR9      -0.072400
     43 CAV         11.1220     0.5950    -0.1590 c3         1 DR9      -0.046200
     44 CAU         12.1290     1.0840    -1.1830 c2         1 DR9      -0.209200
     45 CAT         12.1210     2.2680    -1.8200 c2         1 DR9      -0.223200
     46 CAS         11.0810     3.3650    -1.6870 c3         1 DR9      -0.042200
     47 CAR         11.4860     4.4240    -0.6400 c3         1 DR9      -0.072400
     48 CBI         10.4380     5.5470    -0.4760 c3         1 DR9      -0.075400
     49 CBT         10.8420     6.5990     0.5810 c3         1 DR9      -0.075400
     50 CBW          9.7950     7.7220     0.7460 c3         1 DR9      -0.075400
     51 CBY         10.1960     8.7690     1.8040 c3         1 DR9      -0.088100
     52 HBX1       -15.2980     3.4750     3.7000 hc         1 DR9       0.030033
     53 HBX2       -16.3030     4.3040     2.4870 hc         1 DR9       0.030033
     54 HBX3       -16.5650     2.5810     2.8320 hc         1 DR9       0.030033
     55 HBV1       -14.3290     2.0170     1.8900 hc         1 DR9       0.036700
     56 HBV2       -15.3260     2.8370     0.6880 hc         1 DR9       0.036700
     57 HBS1       -14.1440     5.0010     1.1820 hc         1 DR9       0.036200
     58 HBS2       -13.1490     4.1830     2.3870 hc         1 DR9       0.036200
     59 HBH1       -12.2030     2.6950     0.5970 hc         1 DR9       0.037200
     60 HBH2       -13.1980     3.5130    -0.6090 hc         1 DR9       0.037200
     61 HAQ1       -12.0190     5.6760    -0.1170 hc         1 DR9       0.036200
     62 HAQ2       -11.0260     4.8610     1.0930 hc         1 DR9       0.036200
     63 HAP1       -10.0780     3.3670    -0.6900 hc         1 DR9       0.038200
     64 HAP2       -11.0710     4.1800    -1.9010 hc         1 DR9       0.038200
     65 HAO1        -9.8900     6.3450    -1.4220 hc         1 DR9       0.037700
     66 HAO2        -8.9030     5.5380    -0.2030 hc         1 DR9       0.037700
     67 HAN1        -7.9720     4.0180    -1.9770 hc         1 DR9       0.044700
     68 HAN2        -8.9320     4.8390    -3.1900 hc         1 DR9       0.044700
     69 HAM         -7.6010     6.8500    -3.0830 ha         1 DR9       0.158000
     70 HAL         -5.4000     6.8340    -2.0740 ha         1 DR9       0.160000
     71 HAK1        -4.8900     5.4710    -0.1650 hc         1 DR9       0.045200
     72 HAK2        -6.3630     4.5350    -0.3120 hc         1 DR9       0.045200
     73 HAJ1        -5.4390     3.3910    -2.3530 hc         1 DR9       0.035200
     74 HAJ2        -3.9450     4.3120    -2.1840 hc         1 DR9       0.035200
     75 HAI1        -3.5360     3.2630     0.0530 hc         1 DR9       0.044700
     76 HAI2        -5.0510     2.3700    -0.0780 hc         1 DR9       0.044700
     77 HAH1        -4.1770     1.1770    -2.1060 hc         1 DR9       0.031200
     78 HAH2        -2.6570     2.0640    -1.9760 hc         1 DR9       0.031200
     79 HAG1        -2.2360     1.0330     0.2680 hc         1 DR9       0.049200
     80 HAG2        -3.7700     0.1690     0.1690 hc         1 DR9       0.049200
     81 HAF1        -2.9520    -1.0600    -1.8610 hc         1 DR9       0.042200
     82 HAF2        -1.4140    -0.2020    -1.7660 hc         1 DR9       0.042200
     83 HAE1        -0.9370    -1.2120     0.4320 hc         1 DR9       0.087700
     84 HAE2        -2.5270    -2.0600     0.4110 hc         1 DR9       0.087700
     85 HAB1         0.3990    -4.1950    -2.6230 h1         1 DR9       0.051200
     86 HAB2         1.8150    -3.1600    -2.5010 h1         1 DR9       0.051200
     87 HBE          2.1390    -5.4040    -1.5450 h1         1 DR9       0.046700
     88 HBK1        -0.0710    -5.7980    -0.4330 h1         1 DR9       0.038200
     89 HBK2         1.3160    -6.1630     0.5890 h1         1 DR9       0.038200
     90 HBO1        -2.2660    -6.5370     3.2930 h1         1 DR9       0.022200
     91 HBO2        -1.8270    -5.3110     4.4770 h1         1 DR9       0.022200
     92 HBP         -2.1990    -4.5840     1.5240 h1         1 DR9       0.088700
     93 HBG         -1.2950    -3.1150     3.2400 ho         1 DR9       0.435000
     94 HBQ1        -4.2300    -5.8290     2.2760 h1         1 DR9       0.016700
     95 HBQ2        -4.4450    -4.6730     3.5980 h1         1 DR9       0.016700
     96 HBR         -5.7280    -4.0930     1.7950 ho         1 DR9       0.426000
     97 HBB1         4.2930    -2.8500     1.4160 hc         1 DR9       0.074200
     98 HBB2         5.3240    -4.2780     1.7990 hc         1 DR9       0.074200
     99 HBA1         6.3660    -4.0700    -0.4710 hc         1 DR9       0.050200
    100 HBA2         5.3450    -2.6760    -0.8210 hc         1 DR9       0.050200
    101 HAZ1         6.4090    -1.4190     1.0790 hc         1 DR9       0.037200
    102 HAZ2         7.4300    -2.8140     1.4300 hc         1 DR9       0.037200
    103 HAY1         8.4660    -2.6310    -0.8520 hc         1 DR9       0.038200
    104 HAY2         7.4450    -1.2370    -1.2040 hc         1 DR9       0.038200
    105 HAX1         8.5100     0.0240     0.6890 hc         1 DR9       0.036700
    106 HAX2         9.5310    -1.3710     1.0440 hc         1 DR9       0.036700
    107 HAW1        10.5630    -1.1920    -1.2450 hc         1 DR9       0.039700
    108 HAW2         9.5460     0.2070    -1.5910 hc         1 DR9       0.039700
    109 HAV1        10.6170     1.4410     0.3240 hc         1 DR9       0.044200
    110 HAV2        11.6440     0.0590     0.6440 hc         1 DR9       0.044200
    111 HAU         12.9360     0.3730    -1.3780 ha         1 DR9       0.164000
    112 HAT         12.9170     2.5020    -2.5310 ha         1 DR9       0.162000
    113 HAS1        10.9330     3.8520    -2.6590 hc         1 DR9       0.044200
    114 HAS2        10.1070     2.9420    -1.4090 hc         1 DR9       0.044200
    115 HAR1        11.6400     3.9300     0.3280 hc         1 DR9       0.038200
    116 HAR2        12.4480     4.8660    -0.9300 hc         1 DR9       0.038200
    117 HBI1        10.2880     6.0440    -1.4430 hc         1 DR9       0.037200
    118 HBI2         9.4760     5.1020    -0.1910 hc         1 DR9       0.037200
    119 HBT1        10.9900     6.1010     1.5470 hc         1 DR9       0.036200
    120 HBT2        11.8050     7.0430     0.2980 hc         1 DR9       0.036200
    121 HBW1         9.6480     8.2270    -0.2180 hc         1 DR9       0.036700
    122 HBW2         8.8300     7.2820     1.0280 hc         1 DR9       0.036700
    123 HBY1        10.3180     8.3000     2.7880 hc         1 DR9       0.030033
    124 HBY2        11.1420     9.2540     1.5310 hc         1 DR9       0.030033
    125 HBY3         9.4250     9.5440     1.8870 hc         1 DR9       0.030033
@<TRIPOS>BOND
     1     1     2 1   
     2     1    52 1   
     3     1    53 1   
     4     1    54 1   
     5     2     3 1   
     6     2    55 1   
     7     2    56 1   
     8     3     4 1   
     9     3    57 1   
    10     3    58 1   
    11     4     5 1   
    12     4    59 1   
    13     4    60 1   
    14     5     6 1   
    15     5    61 1   
    16     5    62 1   
    17     6     7 1   
    18     6    63 1   
    19     6    64 1   
    20     7     8 1   
    21     7    65 1   
    22     7    66 1   
    23     8     9 1   
    24     8    67 1   
    25     8    68 1   
    26     9    10 2   
    27     9    69 1   
    28    10    11 1   
    29    10    70 1   
    30    11    12 1   
    31    11    71 1   
    32    11    72 1   
    33    12    13 1   
    34    12    73 1   
    35    12    74 1   
    36    13    14 1   
    37    13    75 1   
    38    13    76 1   
    39    14    15 1   
    40    14    77 1   
    41    14    78 1   
    42    15    16 1   
    43    15    79 1   
    44    15    80 1   
    45    16    17 1   
    46    16    81 1   
    47    16    82 1   
    48    17    18 1   
    49    17    83 1   
    50    17    84 1   
    51    18    19 2   
    52    18    20 1   
    53    20    21 1   
    54    21    22 1   
    55    21    85 1   
    56    21    86 1   
    57    22    23 1   
    58    22    34 1   
    59    22    87 1   
    60    23    24 1   
    61    23    88 1   
    62    23    89 1   
    63    24    25 1   
    64    25    26 1   
    65    25    27 1   
    66    25    28 1   
    67    28    29 1   
    68    29    30 1   
    69    29    90 1   
    70    29    91 1   
    71    30    31 1   
    72    30    32 1   
    73    30    92 1   
    74    31    93 1   
    75    32    33 1   
    76    32    94 1   
    77    32    95 1   
    78    33    96 1   
    79    34    35 1   
    80    35    36 2   
    81    35    37 1   
    82    37    38 1   
    83    37    97 1   
    84    37    98 1   
    85    38    39 1   
    86    38    99 1   
    87    38   100 1   
    88    39    40 1   
    89    39   101 1   
    90    39   102 1   
    91    40    41 1   
    92    40   103 1   
    93    40   104 1   
    94    41    42 1   
    95    41   105 1   
    96    41   106 1   
    97    42    43 1   
    98    42   107 1   
    99    42   108 1   
   100    43    44 1   
   101    43   109 1   
   102    43   110 1   
   103    44    45 2   
   104    44   111 1   
   105    45    46 1   
   106    45   112 1   
   107    46    47 1   
   108    46   113 1   
   109    46   114 1   
   110    47    48 1   
   111    47   115 1   
   112    47   116 1   
   113    48    49 1   
   114    48   117 1   
   115    48   118 1   
   116    49    50 1   
   117    49   119 1   
   118    49   120 1   
   119    50    51 1   
   120    50   121 1   
   121    50   122 1   
   122    51   123 1   
   123    51   124 1   
   124    51   125 1   
@<TRIPOS>SUBSTRUCTURE
     1 DR9         1 TEMP              0 ****  ****    0 ROOT
