@<TRIPOS>MOLECULE
DRA
  106   112     1     0     0
SMALL
abcg2


@<TRIPOS>ATOM
      1 O4          -5.8990     5.1460    -0.5300 oh         1 DRA      -0.491100
      2 C4          -6.7940     4.3510     0.0540 ca         1 DRA       0.197100
      3 C3          -7.9410     4.8970     0.6390 ca         1 DRA      -0.210000
      4 C2          -8.8740     4.0890     1.2510 ca         1 DRA      -0.045000
      5 C16         -6.5900     2.9580     0.0920 ca         1 DRA      -0.172600
      6 C15         -7.5580     2.1570     0.7300 ca         1 DRA      -0.089600
      7 C1          -8.6880     2.7140     1.3010 ca         1 DRA      -0.111000
      8 C5          -5.4050     2.3360    -0.5180 c          1 DRA       0.620300
      9 O5          -4.5660     3.0060    -1.1200 o          1 DRA      -0.551100
     10 C17         -5.2260     0.8850    -0.4000 ca         1 DRA      -0.263600
     11 C18         -6.1770     0.0800     0.2410 ca         1 DRA      -0.084600
     12 C12         -7.3980     0.6820     0.8170 c          1 DRA       0.588300
     13 O12         -8.2450    -0.0050     1.3490 o          1 DRA      -0.510100
     14 C6          -4.0740     0.2800    -0.9360 ca         1 DRA       0.233100
     15 O6          -3.1440     0.9790    -1.5680 oh         1 DRA      -0.545100
     16 C20         -3.8830    -1.1130    -0.8270 ca         1 DRA      -0.086300
     17 C19         -4.8450    -1.8820    -0.1980 ca         1 DRA      -0.044300
     18 C11         -5.9890    -1.2820     0.3360 ca         1 DRA      -0.118000
     19 C10         -4.7550    -3.3930    -0.1410 c6         1 DRA       0.187600
     20 O10         -5.4670    -3.9550    -1.2210 oh         1 DRA      -0.650000
     21 C9          -3.3000    -3.8730    -0.2100 c6         1 DRA       0.198000
     22 O9          -2.6320    -3.3950     0.9400 oh         1 DRA      -0.640000
     23 C13         -3.1930    -5.3990    -0.3140 c3         1 DRA      -0.099400
     24 C14         -3.9030    -6.1790     0.7860 c3         1 DRA      -0.092100
     25 C8          -2.6460    -3.2250    -1.4210 c6         1 DRA      -0.088400
     26 C7          -2.6030    -1.7020    -1.3680 c6         1 DRA       0.247600
     27 O7          -1.5580    -1.1900    -0.5590 os         1 DRA      -0.464000
     28 C24         -0.3790    -0.8500    -1.2250 c6         1 DRA       0.384300
     29 C23          0.4360     0.0480    -0.3070 c6         1 DRA      -0.091400
     30 C22          1.0300    -0.7300     0.8670 c6         1 DRA       0.181500
     31 N3           1.8530     0.0950     1.7420 n3         1 DRA      -0.708600
     32 C28          1.2290     1.3540     2.0970 c3         1 DRA       0.148100
     33 C27          2.2240    -0.6230     2.9460 c3         1 DRA       0.148100
     34 O3           0.3390    -1.9810    -1.6330 os         1 DRA      -0.474000
     35 C25          0.8670    -2.7620    -0.5700 c6         1 DRA       0.145300
     36 C26          1.5190    -3.9780    -1.1950 c3         1 DRA      -0.087100
     37 C21          1.8090    -1.9240     0.2940 c6         1 DRA       0.155300
     38 O2           2.8880    -1.4500    -0.4860 os         1 DRA      -0.466000
     39 C31          4.1220    -2.0790    -0.3340 c6         1 DRA       0.394300
     40 C32          4.9460    -1.7720    -1.5730 c6         1 DRA      -0.133400
     41 C33          5.3270    -0.2970    -1.6190 c6         1 DRA       0.150300
     42 O16          6.1890    -0.0090    -2.6960 oh         1 DRA      -0.728000
     43 O11          4.7980    -1.6770     0.8250 os         1 DRA      -0.485000
     44 C34          5.1710    -0.3040     0.8860 c6         1 DRA       0.166300
     45 C36          5.8950    -0.1070     2.2020 c3         1 DRA      -0.082100
     46 C35          6.0380     0.0660    -0.3240 c6         1 DRA       0.151300
     47 O13          6.2770     1.4630    -0.2780 os         1 DRA      -0.434000
     48 C37          7.5650     1.8790    -0.5380 c6         1 DRA       0.396300
     49 O14          8.3220     1.7040     0.6420 os         1 DRA      -0.486000
     50 C39          9.7020     1.9610     0.4740 c6         1 DRA       0.087300
     51 C41         10.4220     1.6060     1.7550 c3         1 DRA      -0.078100
     52 C38          7.5510     3.3470    -0.9160 c6         1 DRA      -0.093400
     53 C40          8.9840     3.8540    -1.0770 c6         1 DRA      -0.185400
     54 C42          9.8910     3.4110     0.0420 c          1 DRA       0.545100
     55 O15         10.7380     4.1250     0.5250 o          1 DRA      -0.507100
     56 HO4         -6.1860     6.0650    -0.4700 ho         1 DRA       0.470000
     57 H3          -8.0940     5.9700     0.6070 ha         1 DRA       0.120000
     58 H2          -9.7540     4.5330     1.6960 ha         1 DRA       0.123000
     59 H1          -9.4200     2.0840     1.7850 ha         1 DRA       0.143000
     60 HO6         -3.4410     1.9220    -1.5730 ho         1 DRA       0.521000
     61 H11         -6.7270    -1.8930     0.8400 ha         1 DRA       0.132000
     62 H10         -5.1910    -3.7180     0.8150 h1         1 DRA       0.038700
     63 HO0         -6.4070    -3.7930    -1.0910 ho         1 DRA       0.450000
     64 HO9         -3.0240    -3.8080     1.7180 ho         1 DRA       0.438000
     65 H131        -2.1270    -5.6460    -0.3020 hc         1 DRA       0.056700
     66 H132        -3.5670    -5.7270    -1.2850 hc         1 DRA       0.056700
     67 H141        -3.5740    -5.8910     1.7870 hc         1 DRA       0.033033
     68 H142        -4.9860    -6.0590     0.7430 hc         1 DRA       0.033033
     69 H143        -3.6940    -7.2440     0.6870 hc         1 DRA       0.033033
     70 H81         -1.6370    -3.6110    -1.5670 hc         1 DRA       0.068700
     71 H82         -3.2090    -3.5190    -2.3100 hc         1 DRA       0.068700
     72 H7          -2.4670    -1.3470    -2.3990 h1         1 DRA       0.054700
     73 H12         -0.6150    -0.3160    -2.1540 h2         1 DRA       0.071700
     74 H2'1         1.2380     0.5080    -0.8880 hc         1 DRA       0.068700
     75 H2'2        -0.2190     0.8530     0.0270 hc         1 DRA       0.068700
     76 H9           0.1920    -1.1590     1.4470 h1         1 DRA       0.045700
     77 H7'1         0.2350     1.2410     2.5600 h1         1 DRA       0.031700
     78 H7'2         1.8650     1.8780     2.8100 h1         1 DRA       0.031700
     79 H7'3         1.1230     2.0060     1.2310 h1         1 DRA       0.031700
     80 H8'1         2.8590    -1.4770     2.7210 h1         1 DRA       0.031700
     81 H8'2         2.7990     0.0340     3.5990 h1         1 DRA       0.031700
     82 H8'3         1.3520    -0.9850     3.5150 h1         1 DRA       0.031700
     83 H5           0.0530    -3.1100     0.0800 h1         1 DRA       0.061700
     84 H6'1         1.9610    -4.6110    -0.4260 hc         1 DRA       0.040700
     85 H6'2         0.7780    -4.5780    -1.7250 hc         1 DRA       0.040700
     86 H6'3         2.2980    -3.7070    -1.9090 hc         1 DRA       0.040700
     87 H4           2.1620    -2.5640     1.1120 h1         1 DRA       0.050700
     88 H31          3.9990    -3.1620    -0.2150 h2         1 DRA       0.061700
     89 H321         5.8550    -2.3810    -1.5470 hc         1 DRA       0.061700
     90 H322         4.3910    -2.0600    -2.4700 hc         1 DRA       0.061700
     91 H33          4.4140     0.3110    -1.6830 h1         1 DRA       0.064700
     92 HO16         5.6820    -0.0680    -3.5120 ho         1 DRA       0.506000
     93 H34          4.2660     0.3160     0.8770 h1         1 DRA       0.084700
     94 H361         6.1740     0.9340     2.3390 hc         1 DRA       0.045033
     95 H362         5.2500    -0.3900     3.0330 hc         1 DRA       0.045033
     96 H363         6.8040    -0.7110     2.2500 hc         1 DRA       0.045033
     97 H35          6.9830    -0.4940    -0.2690 h1         1 DRA       0.061700
     98 H37          8.0250     1.2840    -1.3450 h2         1 DRA       0.037700
     99 H39         10.1000     1.3440    -0.3510 h1         1 DRA       0.045700
    100 H411        10.0730     2.2120     2.5910 hc         1 DRA       0.051033
    101 H412        10.2560     0.5560     1.9960 hc         1 DRA       0.051033
    102 H413        11.4940     1.7560     1.6470 hc         1 DRA       0.051033
    103 H381         7.0000     3.4920    -1.8470 hc         1 DRA       0.067700
    104 H382         7.0370     3.9120    -0.1350 hc         1 DRA       0.067700
    105 H401         9.4140     3.4340    -1.9950 hc         1 DRA       0.069200
    106 H402         9.0170     4.9390    -1.1790 hc         1 DRA       0.069200
@<TRIPOS>BOND
     1     1     2 1   
     2     1    56 1   
     3     2     3 ar  
     4     2     5 ar  
     5     3     4 ar  
     6     3    57 1   
     7     4     7 ar  
     8     4    58 1   
     9     5     6 ar  
    10     5     8 1   
    11     6     7 ar  
    12     6    12 1   
    13     7    59 1   
    14     8     9 2   
    15     8    10 1   
    16    10    11 ar  
    17    10    14 ar  
    18    11    12 1   
    19    11    18 ar  
    20    12    13 2   
    21    14    15 1   
    22    14    16 ar  
    23    15    60 1   
    24    16    17 ar  
    25    16    26 1   
    26    17    18 ar  
    27    17    19 1   
    28    18    61 1   
    29    19    20 1   
    30    19    21 1   
    31    19    62 1   
    32    20    63 1   
    33    21    22 1   
    34    21    23 1   
    35    21    25 1   
    36    22    64 1   
    37    23    24 1   
    38    23    65 1   
    39    23    66 1   
    40    24    67 1   
    41    24    68 1   
    42    24    69 1   
    43    25    26 1   
    44    25    70 1   
    45    25    71 1   
    46    26    27 1   
    47    26    72 1   
    48    27    28 1   
    49    28    29 1   
    50    28    34 1   
    51    28    73 1   
    52    29    30 1   
    53    29    74 1   
    54    29    75 1   
    55    30    31 1   
    56    30    37 1   
    57    30    76 1   
    58    31    32 1   
    59    31    33 1   
    60    32    77 1   
    61    32    78 1   
    62    32    79 1   
    63    33    80 1   
    64    33    81 1   
    65    33    82 1   
    66    34    35 1   
    67    35    36 1   
    68    35    37 1   
    69    35    83 1   
    70    36    84 1   
    71    36    85 1   
    72    36    86 1   
    73    37    38 1   
    74    37    87 1   
    75    38    39 1   
    76    39    40 1   
    77    39    43 1   
    78    39    88 1   
    79    40    41 1   
    80    40    89 1   
    81    40    90 1   
    82    41    42 1   
    83    41    46 1   
    84    41    91 1   
    85    42    92 1   
    86    43    44 1   
    87    44    45 1   
    88    44    46 1   
    89    44    93 1   
    90    45    94 1   
    91    45    95 1   
    92    45    96 1   
    93    46    47 1   
    94    46    97 1   
    95    47    48 1   
    96    48    49 1   
    97    48    52 1   
    98    48    98 1   
    99    49    50 1   
   100    50    51 1   
   101    50    54 1   
   102    50    99 1   
   103    51   100 1   
   104    51   101 1   
   105    51   102 1   
   106    52    53 1   
   107    52   103 1   
   108    52   104 1   
   109    53    54 1   
   110    53   105 1   
   111    53   106 1   
   112    54    55 2   
@<TRIPOS>SUBSTRUCTURE
     1 DRA         1 TEMP              0 ****  ****    0 ROOT
