@<TRIPOS>MOLECULE
DRA
  106   112     1     0     0
SMALL
No Charge or Current Charge


@<TRIPOS>ATOM
      1 O4          -6.8300     5.0850    -0.1310 oh         1 DRA      -0.491100
      2 C4          -7.5990     4.0980     0.4120 ca         1 DRA       0.197100
      3 C3          -8.7790     4.4970     1.0580 ca         1 DRA      -0.210000
      4 C2          -9.6220     3.5490     1.6470 ca         1 DRA      -0.045000
      5 C16         -7.2360     2.7220     0.3420 ca         1 DRA      -0.172600
      6 C15         -8.0990     1.7650     0.9480 ca         1 DRA      -0.089600
      7 C1          -9.2830     2.1940     1.5920 ca         1 DRA      -0.111000
      8 C5          -5.9660     2.2570    -0.3560 c          1 DRA       0.620300
      9 O5          -5.2180     3.0390    -0.9330 o          1 DRA      -0.551100
     10 C17         -5.6180     0.7780    -0.3480 ca         1 DRA      -0.263600
     11 C18         -6.4950    -0.1510     0.2640 ca         1 DRA      -0.084600
     12 C12         -7.7820     0.2890     0.9230 c          1 DRA       0.588300
     13 O12         -8.5470    -0.5290     1.4250 o          1 DRA      -0.510100
     14 C6          -4.4210     0.2970    -0.9470 ca         1 DRA       0.233100
     15 O6          -3.5740     1.1690    -1.5700 oh         1 DRA      -0.545100
     16 C20         -4.0910    -1.0790    -0.9300 ca         1 DRA      -0.086300
     17 C19         -4.9890    -1.9970    -0.3410 ca         1 DRA      -0.044300
     18 C11         -6.1720    -1.5250     0.2490 ca         1 DRA      -0.118000
     19 C10         -4.7480    -3.5140    -0.3820 c6         1 DRA       0.187600
     20 O10         -5.5120    -4.0470    -1.4790 oh         1 DRA      -0.650000
     21 C9          -3.2250    -3.8880    -0.5030 c6         1 DRA       0.198000
     22 O9          -2.5310    -3.5340     0.7040 oh         1 DRA      -0.640000
     23 C13         -2.9960    -5.4230    -0.7210 c3         1 DRA      -0.099400
     24 C14         -3.5510    -6.3680     0.3730 c3         1 DRA      -0.092100
     25 C8          -2.6250    -3.0930    -1.6960 c6         1 DRA      -0.088400
     26 C7          -2.7540    -1.5500    -1.5430 c6         1 DRA       0.247600
     27 O7          -1.6830    -0.9900    -0.7430 os         1 DRA      -0.464000
     28 C24         -0.4600    -0.6720    -1.4380 c6         1 DRA       0.384300
     29 C23          0.3190     0.4160    -0.6630 c6         1 DRA      -0.091400
     30 C22          0.8490    -0.1150     0.7050 c6         1 DRA       0.181500
     31 N3           1.5780     0.9390     1.5100 n3         1 DRA      -0.708600
     32 C28          0.8320     2.2120     1.6720 c3         1 DRA       0.148100
     33 C27          2.0420     0.4450     2.8300 c3         1 DRA       0.148100
     34 O3           0.3500    -1.8540    -1.5910 os         1 DRA      -0.474000
     35 C25          0.8150    -2.4320    -0.3490 c6         1 DRA       0.145300
     36 C26          1.4910    -3.7780    -0.7090 c3         1 DRA      -0.087100
     37 C21          1.7060    -1.4080     0.4320 c6         1 DRA       0.155300
     38 O2           2.9330    -1.0760    -0.2820 os         1 DRA      -0.466000
     39 C31          4.0820    -1.8970    -0.0080 c6         1 DRA       0.394300
     40 C32          5.0810    -1.8230    -1.1830 c6         1 DRA      -0.133400
     41 C33          5.6680    -0.3990    -1.3320 c6         1 DRA       0.150300
     42 O16          6.6190    -0.3880    -2.4130 oh         1 DRA      -0.728000
     43 O11          4.7200    -1.4410     1.2020 os         1 DRA      -0.485000
     44 C34          5.2220    -0.0820     1.1540 c6         1 DRA       0.166300
     45 C36          5.7990     0.2270     2.5590 c3         1 DRA      -0.082100
     46 C35          6.2860     0.0730     0.0290 c6         1 DRA       0.151300
     47 O13          6.7680     1.4430    -0.0200 os         1 DRA      -0.434000
     48 C37          8.1080     1.6190    -0.5040 c6         1 DRA       0.396300
     49 O14          9.0190     1.1910     0.5310 os         1 DRA      -0.486000
     50 C39         10.4150     1.2970     0.1560 c6         1 DRA       0.087300
     51 C41         11.2520     0.7250     1.3320 c3         1 DRA      -0.078100
     52 C38          8.3440     3.1200    -0.8250 c6         1 DRA      -0.093400
     53 C40          9.8300     3.4200    -1.1940 c6         1 DRA      -0.185400
     54 C42         10.7810     2.7740    -0.1770 c          1 DRA       0.545100
     55 O15         11.6470     3.4220     0.4020 o          1 DRA      -0.507100
     56 HO4         -7.2680     5.9450     0.0330 ho         1 DRA       0.470000
     57 H3          -9.0530     5.5480     1.1090 ha         1 DRA       0.120000
     58 H2         -10.5370     3.8640     2.1470 ha         1 DRA       0.123000
     59 H1          -9.9510     1.4720     2.0580 ha         1 DRA       0.143000
     60 HO6         -3.9870     2.0660    -1.4750 ho         1 DRA       0.521000
     61 H11         -6.8530    -2.2430     0.7020 ha         1 DRA       0.132000
     62 H10         -5.1270    -3.9390     0.5590 h1         1 DRA       0.038700
     63 HO0         -6.4240    -3.7000    -1.3800 ho         1 DRA       0.450000
     64 HO9         -2.8700    -4.1240     1.4080 ho         1 DRA       0.438000
     65 H131        -1.9200    -5.6180    -0.8140 hc         1 DRA       0.056700
     66 H132        -3.4290    -5.7290    -1.6810 hc         1 DRA       0.056700
     67 H141        -3.0970    -6.1600     1.3490 hc         1 DRA       0.033033
     68 H142        -4.6390    -6.2710     0.4650 hc         1 DRA       0.033033
     69 H143        -3.3290    -7.4110     0.1160 hc         1 DRA       0.033033
     70 H81         -1.5830    -3.3850    -1.8570 hc         1 DRA       0.068700
     71 H82         -3.1460    -3.3870    -2.6160 hc         1 DRA       0.068700
     72 H7          -2.6880    -1.1140    -2.5510 h1         1 DRA       0.054700
     73 H12         -0.7030    -0.2680    -2.4330 h2         1 DRA       0.071700
     74 H2'1         1.1530     0.7780    -1.2770 hc         1 DRA       0.068700
     75 H2'2        -0.3610     1.2650    -0.5220 hc         1 DRA       0.068700
     76 H9          -0.0300    -0.4320     1.2860 h1         1 DRA       0.045700
     77 H7'1        -0.1560     2.0340     2.1160 h1         1 DRA       0.031700
     78 H7'2         1.3810     2.9030     2.3250 h1         1 DRA       0.031700
     79 H7'3         0.6990     2.7240     0.7100 h1         1 DRA       0.031700
     80 H8'1         2.7260    -0.4050     2.7290 h1         1 DRA       0.031700
     81 H8'2         2.5850     1.2320     3.3690 h1         1 DRA       0.031700
     82 H8'3         1.1910     0.1310     3.4500 h1         1 DRA       0.031700
     83 H5          -0.0550    -2.6710     0.2770 h1         1 DRA       0.061700
     84 H6'1         1.9060    -4.2630     0.1820 hc         1 DRA       0.040700
     85 H6'2         0.7630    -4.4700    -1.1480 hc         1 DRA       0.040700
     86 H6'3         2.2990    -3.6450    -1.4390 hc         1 DRA       0.040700
     87 H4           1.9700    -1.8650     1.3960 h1         1 DRA       0.050700
     88 H31          3.7780    -2.9450     0.1240 h2         1 DRA       0.061700
     89 H321         5.8880    -2.5480    -1.0140 hc         1 DRA       0.061700
     90 H322         4.5740    -2.1270    -2.1080 hc         1 DRA       0.061700
     91 H33          4.8380     0.2860    -1.5670 h1         1 DRA       0.064700
     92 HO16         6.1190    -0.5900    -3.2370 ho         1 DRA       0.506000
     93 H34          4.3850     0.6070     0.9620 h1         1 DRA       0.084700
     94 H361         6.1260     1.2700     2.6310 hc         1 DRA       0.045033
     95 H362         5.0480     0.0630     3.3410 hc         1 DRA       0.045033
     96 H363         6.6620    -0.4110     2.7820 hc         1 DRA       0.045033
     97 H35          7.1270    -0.5900     0.2810 h1         1 DRA       0.061700
     98 H37          8.2770     1.0270    -1.4130 h2         1 DRA       0.037700
     99 H39         10.5940     0.6950    -0.7470 h1         1 DRA       0.045700
    100 H411        11.0970     1.3040     2.2510 hc         1 DRA       0.051033
    101 H412        10.9770    -0.3150     1.5390 hc         1 DRA       0.051033
    102 H413        12.3240     0.7430     1.0990 hc         1 DRA       0.051033
    103 H381         7.6850     3.4270    -1.6480 hc         1 DRA       0.067700
    104 H382         8.0550     3.7220     0.0470 hc         1 DRA       0.067700
    105 H401        10.0010     2.9080    -2.1510 hc         1 DRA       0.069200
    106 H402        10.0360     4.4930    -1.3030 hc         1 DRA       0.069200
@<TRIPOS>BOND
     1     1     2 1   
     2     1    56 1   
     3     2     3 ar  
     4     2     5 ar  
     5     3     4 ar  
     6     3    57 1   
     7     4     7 ar  
     8     4    58 1   
     9     5     6 ar  
    10     5     8 1   
    11     6     7 ar  
    12     6    12 1   
    13     7    59 1   
    14     8     9 2   
    15     8    10 1   
    16    10    11 ar  
    17    10    14 ar  
    18    11    12 1   
    19    11    18 ar  
    20    12    13 2   
    21    14    15 1   
    22    14    16 ar  
    23    15    60 1   
    24    16    17 ar  
    25    16    26 1   
    26    17    18 ar  
    27    17    19 1   
    28    18    61 1   
    29    19    20 1   
    30    19    21 1   
    31    19    62 1   
    32    20    63 1   
    33    21    22 1   
    34    21    23 1   
    35    21    25 1   
    36    22    64 1   
    37    23    24 1   
    38    23    65 1   
    39    23    66 1   
    40    24    67 1   
    41    24    68 1   
    42    24    69 1   
    43    25    26 1   
    44    25    70 1   
    45    25    71 1   
    46    26    27 1   
    47    26    72 1   
    48    27    28 1   
    49    28    29 1   
    50    28    34 1   
    51    28    73 1   
    52    29    30 1   
    53    29    74 1   
    54    29    75 1   
    55    30    31 1   
    56    30    37 1   
    57    30    76 1   
    58    31    32 1   
    59    31    33 1   
    60    32    77 1   
    61    32    78 1   
    62    32    79 1   
    63    33    80 1   
    64    33    81 1   
    65    33    82 1   
    66    34    35 1   
    67    35    36 1   
    68    35    37 1   
    69    35    83 1   
    70    36    84 1   
    71    36    85 1   
    72    36    86 1   
    73    37    38 1   
    74    37    87 1   
    75    38    39 1   
    76    39    40 1   
    77    39    43 1   
    78    39    88 1   
    79    40    41 1   
    80    40    89 1   
    81    40    90 1   
    82    41    42 1   
    83    41    46 1   
    84    41    91 1   
    85    42    92 1   
    86    43    44 1   
    87    44    45 1   
    88    44    46 1   
    89    44    93 1   
    90    45    94 1   
    91    45    95 1   
    92    45    96 1   
    93    46    47 1   
    94    46    97 1   
    95    47    48 1   
    96    48    49 1   
    97    48    52 1   
    98    48    98 1   
    99    49    50 1   
   100    50    51 1   
   101    50    54 1   
   102    50    99 1   
   103    51   100 1   
   104    51   101 1   
   105    51   102 1   
   106    52    53 1   
   107    52   103 1   
   108    52   104 1   
   109    53    54 1   
   110    53   105 1   
   111    53   106 1   
   112    54    55 2   
@<TRIPOS>SUBSTRUCTURE
     1 DRA         1 TEMP              0 ****  ****    0 ROOT
