@<TRIPOS>MOLECULE
DRD
   75    79     1     0     0
SMALL
No Charge or Current Charge


@<TRIPOS>ATOM
      1 CAV         -4.0390    -0.8920     3.3560 ca         1 DRD      -0.066000
      2 CAY         -4.7840     0.2970     3.4400 ca         1 DRD      -0.125500
      3 CAX         -4.7300     1.2380     2.3990 ca         1 DRD      -0.092000
      4 CAW         -3.9350     0.9850     1.2700 ca         1 DRD      -0.125500
      5 CAZ         -3.1880    -0.2030     1.1820 ca         1 DRD      -0.066000
      6 CBA         -3.2220    -1.1490     2.2330 ca         1 DRD      -0.163600
      7 CBB         -2.4390    -2.4400     2.1510 c          1 DRD       0.598300
      8 OBO         -2.8670    -3.4610     2.6790 o          1 DRD      -0.531100
      9 CBC         -1.1210    -2.4610     1.4100 ca         1 DRD      -0.193600
     10 CBH         -0.7050    -3.6360     0.7570 ca         1 DRD      -0.017000
     11 CBD         -0.2730    -1.3360     1.3880 ca         1 DRD      -0.078000
     12 CBG          0.9540    -1.3790     0.7060 ca         1 DRD      -0.119000
     13 CBF          1.3760    -2.5530     0.0370 ca         1 DRD       0.030000
     14 CBK          2.6170    -2.6240    -0.6610 ca         1 DRD      -0.130300
     15 CBL          3.5840    -1.4290    -0.7130 c3         1 DRD      -0.016100
     16 CBM          3.2110    -0.4250    -1.8260 c3         1 DRD      -0.076400
     17 CBN          4.1570     0.7900    -1.8900 c3         1 DRD      -0.087100
     18 CBE          0.5240    -3.6820     0.0700 ca         1 DRD      -0.092000
     19 CBI          0.8920    -4.8670    -0.5880 ca         1 DRD      -0.054000
     20 CBJ          2.1010    -4.9370    -1.2900 ca         1 DRD      -0.176000
     21 CAE          2.9650    -3.8230    -1.3350 ca         1 DRD       0.175100
     22 OAD          4.1560    -3.8700    -2.0370 os         1 DRD      -0.352100
     23 CAC          4.5810    -5.0290    -2.7710 c3         1 DRD       0.164600
     24 CAB          5.9330    -4.6890    -3.4270 c3         1 DRD      -0.103400
     25 CAA          6.5550    -5.8720    -4.2010 c3         1 DRD       0.092600
     26 NAT          5.7100    -6.3640    -5.3050 na         1 DRD      -0.110700
     27 CAU          4.8630    -7.4910    -5.2870 cc         1 DRD      -0.232100
     28 CAM          4.2800    -7.4990    -6.5460 cd         1 DRD      -0.179200
     29 CAN          4.7590    -6.3910    -7.3380 ca         1 DRD      -0.151800
     30 CAO          5.6400    -5.7190    -6.5370 ca         1 DRD      -0.010200
     31 CAR          6.3080    -4.5740    -6.9950 ca         1 DRD      -0.223000
     32 CAQ          6.0410    -4.1310    -8.3070 ca         1 DRD      -0.038000
     33 CAP          5.1270    -4.8310    -9.1310 ca         1 DRD      -0.231000
     34 CAS          4.4680    -5.9920    -8.6510 ca         1 DRD       0.268100
     35 OAF          3.5620    -6.7470    -9.3830 os         1 DRD      -0.338100
     36 CAG          3.2990    -6.6080   -10.8100 c3         1 DRD       0.036000
     37 CAL          2.2330    -7.6940   -11.1000 c3         1 DRD      -0.075600
     38 CAK          4.6070    -6.9600   -11.5810 c3         1 DRD      -0.075600
     39 CAH          2.6830    -5.2080   -11.2100 c          1 DRD       0.707000
     40 OAJ          2.8240    -4.8180   -12.3630 o          1 DRD      -0.708500
     41 OAI          2.1540    -4.5190   -10.3460 o          1 DRD      -0.708500
     42 HAP          4.9410    -4.4510   -10.1280 ha         1 DRD       0.149000
     43 HAQ          6.5390    -3.2420    -8.6880 ha         1 DRD       0.094000
     44 HAR          7.0100    -4.0350    -6.3640 ha         1 DRD       0.094000
     45 HAU          4.7530    -8.1500    -4.4310 h4         1 DRD       0.189000
     46 HAM          3.5590    -8.2400    -6.8870 ha         1 DRD       0.206000
     47 HAA1         7.5280    -5.5700    -4.6080 h1         1 DRD       0.048700
     48 HAA2         6.7350    -6.7020    -3.5050 h1         1 DRD       0.048700
     49 HAB1         5.8000    -3.8400    -4.1070 hc         1 DRD       0.062700
     50 HAB2         6.6380    -4.3710    -2.6490 hc         1 DRD       0.062700
     51 HAC1         4.7050    -5.8900    -2.1010 h1         1 DRD       0.046200
     52 HAC2         3.8490    -5.2860    -3.5480 h1         1 DRD       0.046200
     53 HBJ          2.3470    -5.8660    -1.7950 ha         1 DRD       0.128000
     54 HBI          0.2370    -5.7350    -0.5630 ha         1 DRD       0.117000
     55 HBH         -1.3450    -4.5170     0.7720 ha         1 DRD       0.126000
     56 HBD         -0.5540    -0.4230     1.9080 ha         1 DRD       0.114000
     57 HBG          1.5610    -0.4800     0.7120 ha         1 DRD       0.117000
     58 HBL1         3.6260    -0.9140     0.2530 hc         1 DRD       0.043700
     59 HBL2         4.6150    -1.7630    -0.8770 hc         1 DRD       0.043700
     60 HBM1         3.2270    -0.9410    -2.7940 hc         1 DRD       0.048700
     61 HBM2         2.1840    -0.0710    -1.6730 hc         1 DRD       0.048700
     62 HBN1         4.1360     1.3470    -0.9450 hc         1 DRD       0.028367
     63 HBN2         5.1880     0.4690    -2.0820 hc         1 DRD       0.028367
     64 HBN3         3.8530     1.4690    -2.6950 hc         1 DRD       0.028367
     65 HAZ         -2.5940    -0.3890     0.2890 ha         1 DRD       0.127000
     66 HAW         -3.9000     1.7080     0.4570 ha         1 DRD       0.114000
     67 HAX         -5.3080     2.1580     2.4640 ha         1 DRD       0.110000
     68 HAY         -5.4050     0.4890     4.3120 ha         1 DRD       0.114000
     69 HAV         -4.0920    -1.6120     4.1710 ha         1 DRD       0.127000
     70 HAL1         1.9760    -7.7120   -12.1670 hc         1 DRD       0.027867
     71 HAL2         2.5990    -8.6900   -10.8220 hc         1 DRD       0.027867
     72 HAL3         1.3140    -7.4960   -10.5360 hc         1 DRD       0.027867
     73 HAK1         5.3540    -6.1630   -11.5130 hc         1 DRD       0.027867
     74 HAK2         4.3980    -7.1210   -12.6450 hc         1 DRD       0.027867
     75 HAK3         5.0540    -7.8810   -11.1870 hc         1 DRD       0.027867
@<TRIPOS>BOND
     1     1     2 ar  
     2     1     6 ar  
     3     1    69 1   
     4     2     3 ar  
     5     2    68 1   
     6     3     4 ar  
     7     3    67 1   
     8     4     5 ar  
     9     4    66 1   
    10     5     6 ar  
    11     5    65 1   
    12     6     7 1   
    13     7     8 2   
    14     7     9 1   
    15     9    10 ar  
    16     9    11 ar  
    17    10    18 ar  
    18    10    55 1   
    19    11    12 ar  
    20    11    56 1   
    21    12    13 ar  
    22    12    57 1   
    23    13    14 ar  
    24    13    18 ar  
    25    14    15 1   
    26    14    21 ar  
    27    15    16 1   
    28    15    58 1   
    29    15    59 1   
    30    16    17 1   
    31    16    60 1   
    32    16    61 1   
    33    17    62 1   
    34    17    63 1   
    35    17    64 1   
    36    18    19 ar  
    37    19    20 ar  
    38    19    54 1   
    39    20    21 ar  
    40    20    53 1   
    41    21    22 1   
    42    22    23 1   
    43    23    24 1   
    44    23    51 1   
    45    23    52 1   
    46    24    25 1   
    47    24    49 1   
    48    24    50 1   
    49    25    26 1   
    50    25    47 1   
    51    25    48 1   
    52    26    27 1   
    53    26    30 1   
    54    27    28 2   
    55    27    45 1   
    56    28    29 1   
    57    28    46 1   
    58    29    30 ar  
    59    29    34 ar  
    60    30    31 ar  
    61    31    32 ar  
    62    31    44 1   
    63    32    33 ar  
    64    32    43 1   
    65    33    34 ar  
    66    33    42 1   
    67    34    35 1   
    68    35    36 1   
    69    36    37 1   
    70    36    38 1   
    71    36    39 1   
    72    37    70 1   
    73    37    71 1   
    74    37    72 1   
    75    38    73 1   
    76    38    74 1   
    77    38    75 1   
    78    39    40 1   
    79    39    41 1   
@<TRIPOS>SUBSTRUCTURE
     1 DRD         1 TEMP              0 ****  ****    0 ROOT
