@<TRIPOS>MOLECULE
DRD
   75    79     1     0     0
SMALL
abcg2


@<TRIPOS>ATOM
      1 CAV         -4.0250    -1.0390     3.0160 ca         1 DRD      -0.066000
      2 CAY         -4.7840     0.1150     3.1280 ca         1 DRD      -0.125500
      3 CAX         -4.7390     1.0760     2.1250 ca         1 DRD      -0.092000
      4 CAW         -3.9290     0.8840     1.0140 ca         1 DRD      -0.125500
      5 CAZ         -3.1510    -0.2600     0.9120 ca         1 DRD      -0.066000
      6 CBA         -3.1920    -1.2300     1.9140 ca         1 DRD      -0.163600
      7 CBB         -2.4330    -2.5040     1.7970 c          1 DRD       0.598300
      8 OBO         -2.8970    -3.5330     2.2520 o          1 DRD      -0.531100
      9 CBC         -1.1170    -2.5050     1.1130 ca         1 DRD      -0.193600
     10 CBH         -0.6970    -3.6480     0.4770 ca         1 DRD      -0.017000
     11 CBD         -0.2510    -1.3840     1.1400 ca         1 DRD      -0.078000
     12 CBG          0.9780    -1.4300     0.5460 ca         1 DRD      -0.119000
     13 CBF          1.4290    -2.5910    -0.1380 ca         1 DRD       0.030000
     14 CBK          2.6930    -2.6580    -0.7750 ca         1 DRD      -0.130300
     15 CBL          3.6420    -1.4910    -0.7810 c3         1 DRD      -0.016100
     16 CBM          3.4290    -0.5610    -1.9780 c3         1 DRD      -0.076400
     17 CBN          4.4280     0.5860    -1.9970 c3         1 DRD      -0.087100
     18 CBE          0.5520    -3.7120    -0.1690 ca         1 DRD      -0.092000
     19 CBI          0.9560    -4.8800    -0.8480 ca         1 DRD      -0.054000
     20 CBJ          2.1670    -4.9390    -1.4750 ca         1 DRD      -0.176000
     21 CAE          3.0350    -3.8230    -1.4460 ca         1 DRD       0.175100
     22 OAD          4.2310    -3.8290    -2.0600 os         1 DRD      -0.352100
     23 CAC          4.6710    -4.9770    -2.7670 c3         1 DRD       0.164600
     24 CAB          6.0280    -4.6440    -3.3530 c3         1 DRD      -0.103400
     25 CAA          6.6570    -5.8250    -4.0830 c3         1 DRD       0.092600
     26 NAT          5.8680    -6.3040    -5.1970 na         1 DRD      -0.110700
     27 CAU          5.0770    -7.4230    -5.1910 cc         1 DRD      -0.232100
     28 CAM          4.4020    -7.5280    -6.3710 cd         1 DRD      -0.179200
     29 CAN          4.7940    -6.4030    -7.1600 ca         1 DRD      -0.151800
     30 CAO          5.7080    -5.6580    -6.3930 ca         1 DRD      -0.010200
     31 CAR          6.3010    -4.4840    -6.8700 ca         1 DRD      -0.223000
     32 CAQ          5.9360    -4.0850    -8.1380 ca         1 DRD      -0.038000
     33 CAP          5.0210    -4.8040    -8.9280 ca         1 DRD      -0.231000
     34 CAS          4.4390    -5.9690    -8.4510 ca         1 DRD       0.268100
     35 OAF          3.5680    -6.7630    -9.0890 os         1 DRD      -0.338100
     36 CAG          3.0820    -6.4740   -10.4070 c3         1 DRD       0.036000
     37 CAL          1.9720    -7.5010   -10.6210 c3         1 DRD      -0.075600
     38 CAK          4.1790    -6.6960   -11.4410 c3         1 DRD      -0.075600
     39 CAH          2.4220    -5.0650   -10.4630 c          1 DRD       0.707000
     40 OAJ          2.5460    -4.4360   -11.5300 o          1 DRD      -0.708500
     41 OAI          1.7830    -4.7230    -9.4540 o          1 DRD      -0.708500
     42 HAP          4.7920    -4.4150    -9.9090 ha         1 DRD       0.149000
     43 HAQ          6.3670    -3.1820    -8.5520 ha         1 DRD       0.094000
     44 HAR          7.0120    -3.9160    -6.2850 ha         1 DRD       0.094000
     45 HAU          5.0660    -8.0730    -4.3300 h4         1 DRD       0.189000
     46 HAM          3.7200    -8.3180    -6.6410 ha         1 DRD       0.206000
     47 HAA1         7.6470    -5.5420    -4.4440 h1         1 DRD       0.048700
     48 HAA2         6.8010    -6.6620    -3.3980 h1         1 DRD       0.048700
     49 HAB1         5.9370    -3.7880    -4.0250 hc         1 DRD       0.062700
     50 HAB2         6.7090    -4.3500    -2.5500 hc         1 DRD       0.062700
     51 HAC1         4.7460    -5.8390    -2.0940 h1         1 DRD       0.046200
     52 HAC2         3.9580    -5.2310    -3.5590 h1         1 DRD       0.046200
     53 HBJ          2.4490    -5.8460    -1.9910 ha         1 DRD       0.128000
     54 HBI          0.2930    -5.7350    -0.8720 ha         1 DRD       0.117000
     55 HBH         -1.3390    -4.5210     0.4450 ha         1 DRD       0.126000
     56 HBD         -0.5470    -0.4840     1.6630 ha         1 DRD       0.114000
     57 HBG          1.6130    -0.5570     0.6050 ha         1 DRD       0.117000
     58 HBL1         3.5480    -0.9160     0.1430 hc         1 DRD       0.043700
     59 HBL2         4.6720    -1.8520    -0.7930 hc         1 DRD       0.043700
     60 HBM1         3.5110    -1.1390    -2.9010 hc         1 DRD       0.048700
     61 HBM2         2.4090    -0.1650    -1.9550 hc         1 DRD       0.048700
     62 HBN1         4.3430     1.2020    -1.1000 hc         1 DRD       0.028367
     63 HBN2         5.4520     0.2130    -2.0450 hc         1 DRD       0.028367
     64 HBN3         4.2730     1.2360    -2.8590 hc         1 DRD       0.028367
     65 HAZ         -2.5300    -0.4050     0.0370 ha         1 DRD       0.127000
     66 HAW         -3.9020     1.6240     0.2260 ha         1 DRD       0.114000
     67 HAX         -5.3380     1.9740     2.2090 ha         1 DRD       0.110000
     68 HAY         -5.4140     0.2630     3.9940 ha         1 DRD       0.114000
     69 HAV         -4.0700    -1.7890     3.7950 ha         1 DRD       0.127000
     70 HAL1         1.5050    -7.3490   -11.5950 hc         1 DRD       0.027867
     71 HAL2         2.3670    -8.5180   -10.5960 hc         1 DRD       0.027867
     72 HAL3         1.2000    -7.4080    -9.8570 hc         1 DRD       0.027867
     73 HAK1         4.9890    -5.9720   -11.3780 hc         1 DRD       0.027867
     74 HAK2         3.7630    -6.6310   -12.4450 hc         1 DRD       0.027867
     75 HAK3         4.6080    -7.6930   -11.3260 hc         1 DRD       0.027867
@<TRIPOS>BOND
     1     1     2 ar  
     2     1     6 ar  
     3     1    69 1   
     4     2     3 ar  
     5     2    68 1   
     6     3     4 ar  
     7     3    67 1   
     8     4     5 ar  
     9     4    66 1   
    10     5     6 ar  
    11     5    65 1   
    12     6     7 1   
    13     7     8 2   
    14     7     9 1   
    15     9    10 ar  
    16     9    11 ar  
    17    10    18 ar  
    18    10    55 1   
    19    11    12 ar  
    20    11    56 1   
    21    12    13 ar  
    22    12    57 1   
    23    13    14 ar  
    24    13    18 ar  
    25    14    15 1   
    26    14    21 ar  
    27    15    16 1   
    28    15    58 1   
    29    15    59 1   
    30    16    17 1   
    31    16    60 1   
    32    16    61 1   
    33    17    62 1   
    34    17    63 1   
    35    17    64 1   
    36    18    19 ar  
    37    19    20 ar  
    38    19    54 1   
    39    20    21 ar  
    40    20    53 1   
    41    21    22 1   
    42    22    23 1   
    43    23    24 1   
    44    23    51 1   
    45    23    52 1   
    46    24    25 1   
    47    24    49 1   
    48    24    50 1   
    49    25    26 1   
    50    25    47 1   
    51    25    48 1   
    52    26    27 1   
    53    26    30 1   
    54    27    28 2   
    55    27    45 1   
    56    28    29 1   
    57    28    46 1   
    58    29    30 ar  
    59    29    34 ar  
    60    30    31 ar  
    61    31    32 ar  
    62    31    44 1   
    63    32    33 ar  
    64    32    43 1   
    65    33    34 ar  
    66    33    42 1   
    67    34    35 1   
    68    35    36 1   
    69    36    37 1   
    70    36    38 1   
    71    36    39 1   
    72    37    70 1   
    73    37    71 1   
    74    37    72 1   
    75    38    73 1   
    76    38    74 1   
    77    38    75 1   
    78    39    40 1   
    79    39    41 1   
@<TRIPOS>SUBSTRUCTURE
     1 DRD         1 TEMP              0 ****  ****    0 ROOT
