@<TRIPOS>MOLECULE
DRE
   44    43     1     0     0
SMALL
abcg2


@<TRIPOS>ATOM
      1 NAA          8.7300    -0.3290     0.0710 n8         1 DRE      -0.995200
      2 CAB          7.5230     0.4870     0.0390 c3         1 DRE       0.149800
      3 CAC          6.2760    -0.3820     0.0180 c3         1 DRE      -0.078400
      4 CAD          4.9890     0.4320    -0.0050 c3         1 DRE      -0.074400
      5 CAE          3.7340    -0.4320    -0.0300 c3         1 DRE      -0.073400
      6 CAF          2.4480     0.3840    -0.0320 c3         1 DRE      -0.079400
      7 CAG          1.2010    -0.4850    -0.0620 c3         1 DRE       0.160800
      8 NAH         -0.0090     0.3150    -0.0600 n7         1 DRE      -0.861400
      9 CAI         -1.2180    -0.4850    -0.0680 c3         1 DRE       0.160800
     10 CAJ         -2.4660     0.3840    -0.0390 c3         1 DRE      -0.079400
     11 CAK         -3.7510    -0.4330    -0.0470 c3         1 DRE      -0.073400
     12 CAL         -5.0070     0.4300    -0.0220 c3         1 DRE      -0.074400
     13 CAM         -6.2930    -0.3860    -0.0100 c3         1 DRE      -0.078400
     14 CAN         -7.5420     0.4820     0.0080 c3         1 DRE       0.149800
     15 NAO         -8.7470    -0.3360     0.0280 n8         1 DRE      -0.995200
     16 HAA1         9.5440     0.2710     0.0490 hn         1 DRE       0.390500
     17 HAA2         8.7760    -0.8130     0.9600 hn         1 DRE       0.390500
     18 HAB1         7.4490     1.1920     0.8800 h1         1 DRE       0.025700
     19 HAB2         7.5470     1.0970    -0.8680 h1         1 DRE       0.025700
     20 HAC1         6.3140    -1.0430    -0.8550 hc         1 DRE       0.045700
     21 HAC2         6.2750    -1.0350     0.8990 hc         1 DRE       0.045700
     22 HAD1         4.9570     1.0890     0.8710 hc         1 DRE       0.037200
     23 HAD2         4.9900     1.0930    -0.8790 hc         1 DRE       0.037200
     24 HAE1         3.7570    -1.0790    -0.9140 hc         1 DRE       0.038200
     25 HAE2         3.7400    -1.1020     0.8370 hc         1 DRE       0.038200
     26 HAF1         2.4240     1.0230     0.8590 hc         1 DRE       0.044700
     27 HAF2         2.4380     1.0580    -0.8950 hc         1 DRE       0.044700
     28 HAG1         1.2080    -1.0930    -0.9730 h1         1 DRE       0.027700
     29 HAG2         1.2360    -1.1980     0.7790 h1         1 DRE       0.027700
     30 HAH         -0.0110     0.8960     0.7710 hn         1 DRE       0.403000
     31 HAI1        -1.2230    -1.0910    -0.9810 h1         1 DRE       0.027700
     32 HAI2        -1.2560    -1.2010     0.7710 h1         1 DRE       0.027700
     33 HAJ1        -2.4460     1.0170     0.8560 hc         1 DRE       0.044700
     34 HAJ2        -2.4510     1.0620    -0.8980 hc         1 DRE       0.044700
     35 HAK1        -3.7700    -1.0740    -0.9350 hc         1 DRE       0.038200
     36 HAK2        -3.7600    -1.1090     0.8150 hc         1 DRE       0.038200
     37 HAL1        -4.9790     1.0810     0.8590 hc         1 DRE       0.037200
     38 HAL2        -5.0060     1.0960    -0.8910 hc         1 DRE       0.037200
     39 HAM1        -6.3250    -1.0430    -0.8850 hc         1 DRE       0.045700
     40 HAM2        -6.2960    -1.0420     0.8690 hc         1 DRE       0.045700
     41 HAN1        -7.4730     1.1820     0.8530 h1         1 DRE       0.025700
     42 HAN2        -7.5600     1.0970    -0.8960 h1         1 DRE       0.025700
     43 HAO1        -8.7980    -0.8260     0.9130 hn         1 DRE       0.390500
     44 HAO2        -9.5620     0.2630     0.0050 hn         1 DRE       0.390500
@<TRIPOS>BOND
     1     1     2 1   
     2     1    16 1   
     3     1    17 1   
     4     2     3 1   
     5     2    18 1   
     6     2    19 1   
     7     3     4 1   
     8     3    20 1   
     9     3    21 1   
    10     4     5 1   
    11     4    22 1   
    12     4    23 1   
    13     5     6 1   
    14     5    24 1   
    15     5    25 1   
    16     6     7 1   
    17     6    26 1   
    18     6    27 1   
    19     7     8 1   
    20     7    28 1   
    21     7    29 1   
    22     8     9 1   
    23     8    30 1   
    24     9    10 1   
    25     9    31 1   
    26     9    32 1   
    27    10    11 1   
    28    10    33 1   
    29    10    34 1   
    30    11    12 1   
    31    11    35 1   
    32    11    36 1   
    33    12    13 1   
    34    12    37 1   
    35    12    38 1   
    36    13    14 1   
    37    13    39 1   
    38    13    40 1   
    39    14    15 1   
    40    14    41 1   
    41    14    42 1   
    42    15    43 1   
    43    15    44 1   
@<TRIPOS>SUBSTRUCTURE
     1 DRE         1 TEMP              0 ****  ****    0 ROOT
