@<TRIPOS>MOLECULE
DRE
   44    43     1     0     0
SMALL
No Charge or Current Charge


@<TRIPOS>ATOM
      1 NAA          8.8630    -0.1460    -0.0320 n8         1 DRE      -0.995200
      2 CAB          7.6000     0.6150    -0.0100 c3         1 DRE       0.149800
      3 CAC          6.3740    -0.3210    -0.0220 c3         1 DRE      -0.078400
      4 CAD          5.0340     0.4470    -0.0020 c3         1 DRE      -0.074400
      5 CAE          3.8010    -0.4850    -0.0150 c3         1 DRE      -0.073400
      6 CAF          2.4610     0.2830     0.0050 c3         1 DRE      -0.079400
      7 CAG          1.2340    -0.6510    -0.0090 c3         1 DRE       0.160800
      8 NAH         -0.0090     0.1390     0.0060 n7         1 DRE      -0.861400
      9 CAI         -1.2520    -0.6520    -0.0150 c3         1 DRE       0.160800
     10 CAJ         -2.4790     0.2820    -0.0060 c3         1 DRE      -0.079400
     11 CAK         -3.8190    -0.4880    -0.0310 c3         1 DRE      -0.073400
     12 CAL         -5.0520     0.4430    -0.0240 c3         1 DRE      -0.074400
     13 CAM         -6.3920    -0.3260    -0.0490 c3         1 DRE      -0.078400
     14 CAN         -7.6180     0.6090    -0.0430 c3         1 DRE       0.149800
     15 NAO         -8.8800    -0.1520    -0.0700 n8         1 DRE      -0.995200
     16 HAA1         9.6500     0.5110     0.0410 hn         1 DRE       0.390500
     17 HAA2         8.9330    -0.7000     0.8300 hn         1 DRE       0.390500
     18 HAB1         7.5810     1.2390     0.8940 h1         1 DRE       0.025700
     19 HAB2         7.5720     1.2740    -0.8890 h1         1 DRE       0.025700
     20 HAC1         6.4120    -0.9540    -0.9170 hc         1 DRE       0.045700
     21 HAC2         6.4190    -0.9890     0.8480 hc         1 DRE       0.045700
     22 HAD1         4.9960     1.0820     0.8930 hc         1 DRE       0.037200
     23 HAD2         4.9890     1.1150    -0.8710 hc         1 DRE       0.037200
     24 HAE1         3.8390    -1.1200    -0.9090 hc         1 DRE       0.038200
     25 HAE2         3.8450    -1.1530     0.8550 hc         1 DRE       0.038200
     26 HAF1         2.4230     0.9170     0.8990 hc         1 DRE       0.044700
     27 HAF2         2.4160     0.9500    -0.8660 hc         1 DRE       0.044700
     28 HAG1         1.2740    -1.2810    -0.9080 h1         1 DRE       0.027700
     29 HAG2         1.2780    -1.3130     0.8670 h1         1 DRE       0.027700
     30 HAH         -0.0110     0.7120     0.8590 hn         1 DRE       0.403000
     31 HAI1        -1.2870    -1.2820    -0.9140 h1         1 DRE       0.027700
     32 HAI2        -1.2980    -1.3140     0.8620 h1         1 DRE       0.027700
     33 HAJ1        -2.4450     0.9160     0.8890 hc         1 DRE       0.044700
     34 HAJ2        -2.4300     0.9480    -0.8760 hc         1 DRE       0.044700
     35 HAK1        -3.8520    -1.1230    -0.9260 hc         1 DRE       0.038200
     36 HAK2        -3.8660    -1.1560     0.8380 hc         1 DRE       0.038200
     37 HAL1        -5.0190     1.0780     0.8710 hc         1 DRE       0.037200
     38 HAL2        -5.0040     1.1110    -0.8930 hc         1 DRE       0.037200
     39 HAM1        -6.4250    -0.9590    -0.9450 hc         1 DRE       0.045700
     40 HAM2        -6.4390    -0.9930     0.8200 hc         1 DRE       0.045700
     41 HAN1        -7.6030     1.2340     0.8610 h1         1 DRE       0.025700
     42 HAN2        -7.5870     1.2680    -0.9220 h1         1 DRE       0.025700
     43 HAO1        -8.9540    -0.7070     0.7920 hn         1 DRE       0.390500
     44 HAO2        -9.6680     0.5040    -0.0000 hn         1 DRE       0.390500
@<TRIPOS>BOND
     1     1     2 1   
     2     1    16 1   
     3     1    17 1   
     4     2     3 1   
     5     2    18 1   
     6     2    19 1   
     7     3     4 1   
     8     3    20 1   
     9     3    21 1   
    10     4     5 1   
    11     4    22 1   
    12     4    23 1   
    13     5     6 1   
    14     5    24 1   
    15     5    25 1   
    16     6     7 1   
    17     6    26 1   
    18     6    27 1   
    19     7     8 1   
    20     7    28 1   
    21     7    29 1   
    22     8     9 1   
    23     8    30 1   
    24     9    10 1   
    25     9    31 1   
    26     9    32 1   
    27    10    11 1   
    28    10    33 1   
    29    10    34 1   
    30    11    12 1   
    31    11    35 1   
    32    11    36 1   
    33    12    13 1   
    34    12    37 1   
    35    12    38 1   
    36    13    14 1   
    37    13    39 1   
    38    13    40 1   
    39    14    15 1   
    40    14    41 1   
    41    14    42 1   
    42    15    43 1   
    43    15    44 1   
@<TRIPOS>SUBSTRUCTURE
     1 DRE         1 TEMP              0 ****  ****    0 ROOT
