@<TRIPOS>MOLECULE
DRF
   55    58     1     0     0
SMALL
bcc


@<TRIPOS>ATOM
      1 O45         -2.0950     0.0910    -7.3240 o          1 DRF      -0.829300
      2 C44         -0.9330     0.4210    -7.0080 c          1 DRF       0.907600
      3 O55         -0.1370     1.1050    -7.6740 o          1 DRF      -0.829300
      4 C41         -0.4800    -0.0560    -5.6070 c3         1 DRF       0.012100
      5 O46          0.9020     0.0370    -5.3920 os         1 DRF      -0.416600
      6 C48          1.6570    -0.9490    -6.0500 c3         1 DRF       0.155400
      7 C49          3.1120    -0.7900    -5.6680 c3         1 DRF      -0.088100
      8 C40         -1.1720     0.7890    -4.5340 c3         1 DRF      -0.022100
      9 C33         -0.8730     0.3210    -3.1390 ca         1 DRF      -0.069300
     10 C34          0.2560     0.7600    -2.4460 ca         1 DRF      -0.091000
     11 C35          0.5410     0.3090    -1.1700 ca         1 DRF      -0.194000
     12 C30         -0.3010    -0.6130    -0.5460 ca         1 DRF       0.105100
     13 O27          0.0570    -1.0040     0.6960 os         1 DRF      -0.329900
     14 C24         -0.8070    -1.8520     1.4180 c3         1 DRF       0.118400
     15 C23         -0.2040    -2.1070     2.7880 c3         1 DRF       0.057300
     16 N22          0.0170    -0.9230     3.5880 na         1 DRF      -0.166100
     17 C11         -1.0350    -0.3690     4.3130 ca         1 DRF      -0.029100
     18 C16         -0.7710     0.6680     5.2170 ca         1 DRF       0.296500
     19 O21          0.4980     1.1240     5.4190 os         1 DRF      -0.410800
     20 C4           1.4780     0.7290     4.5550 ca         1 DRF       0.296500
     21 C3           1.2620    -0.2970     3.6260 ca         1 DRF      -0.029100
     22 C2           2.3300    -0.6450     2.8010 ca         1 DRF      -0.156000
     23 C1           3.5620    -0.0100     2.9120 ca         1 DRF      -0.119500
     24 C6           3.7530     1.0010     3.8350 ca         1 DRF      -0.140500
     25 C5           2.6940     1.3740     4.6550 ca         1 DRF      -0.191300
     26 C15         -1.7750     1.2500     5.9630 ca         1 DRF      -0.191300
     27 C14         -3.0860     0.7970     5.8460 ca         1 DRF      -0.140500
     28 C13         -3.3670    -0.2320     4.9680 ca         1 DRF      -0.119500
     29 C12         -2.3540    -0.8050     4.2040 ca         1 DRF      -0.156000
     30 C31         -1.4300    -1.0670    -1.2200 ca         1 DRF      -0.194000
     31 C32         -1.6990    -0.5960    -2.5010 ca         1 DRF      -0.091000
     32 H41         -0.8130    -1.0990    -5.4780 h1         1 DRF       0.013700
     33 H481         1.5460    -0.8740    -7.1380 h1         1 DRF       0.017700
     34 H482         1.3080    -1.9520    -5.7640 h1         1 DRF       0.017700
     35 H491         3.7150    -1.5510    -6.1630 hc         1 DRF       0.025033
     36 H492         3.4980     0.1870    -5.9650 hc         1 DRF       0.025033
     37 H493         3.2520    -0.9000    -4.5920 hc         1 DRF       0.025033
     38 H401        -2.2470     0.7510    -4.7150 hc         1 DRF       0.059700
     39 H402        -0.8680     1.8340    -4.6540 hc         1 DRF       0.059700
     40 H34          0.9220     1.4770    -2.9090 ha         1 DRF       0.138000
     41 H35          1.4180     0.6670    -0.6440 ha         1 DRF       0.123500
     42 H241        -0.9350    -2.8180     0.9160 h1         1 DRF       0.038200
     43 H242        -1.7990    -1.3950     1.5080 h1         1 DRF       0.038200
     44 H231         0.7350    -2.6490     2.6920 h1         1 DRF       0.058200
     45 H232        -0.8720    -2.7830     3.3280 h1         1 DRF       0.058200
     46 H2           2.2120    -1.4080     2.0470 ha         1 DRF       0.141000
     47 H1           4.3680    -0.3140     2.2560 ha         1 DRF       0.132000
     48 H6           4.7070     1.5020     3.9220 ha         1 DRF       0.132000
     49 H5           2.8090     2.1620     5.3890 ha         1 DRF       0.142000
     50 H15         -1.5260     2.0500     6.6480 ha         1 DRF       0.142000
     51 H14         -3.8680     1.2500     6.4410 ha         1 DRF       0.132000
     52 H13         -4.3780    -0.6030     4.8600 ha         1 DRF       0.132000
     53 H12         -2.6150    -1.6020     3.5240 ha         1 DRF       0.141000
     54 H31         -2.1080    -1.7810    -0.7720 ha         1 DRF       0.123500
     55 H32         -2.5860    -0.9580    -3.0090 ha         1 DRF       0.138000
@<TRIPOS>BOND
     1     1     2 1   
     2     2     3 1   
     3     2     4 1   
     4     4     5 1   
     5     4     8 1   
     6     4    32 1   
     7     5     6 1   
     8     6     7 1   
     9     6    33 1   
    10     6    34 1   
    11     7    35 1   
    12     7    36 1   
    13     7    37 1   
    14     8     9 1   
    15     8    38 1   
    16     8    39 1   
    17     9    10 ar  
    18     9    31 ar  
    19    10    11 ar  
    20    10    40 1   
    21    11    12 ar  
    22    11    41 1   
    23    12    13 1   
    24    12    30 ar  
    25    13    14 1   
    26    14    15 1   
    27    14    42 1   
    28    14    43 1   
    29    15    16 1   
    30    15    44 1   
    31    15    45 1   
    32    16    17 1   
    33    16    21 1   
    34    17    18 ar  
    35    17    29 ar  
    36    18    19 1   
    37    18    26 ar  
    38    19    20 1   
    39    20    21 ar  
    40    20    25 ar  
    41    21    22 ar  
    42    22    23 ar  
    43    22    46 1   
    44    23    24 ar  
    45    23    47 1   
    46    24    25 ar  
    47    24    48 1   
    48    25    49 1   
    49    26    27 ar  
    50    26    50 1   
    51    27    28 ar  
    52    27    51 1   
    53    28    29 ar  
    54    28    52 1   
    55    29    53 1   
    56    30    31 ar  
    57    30    54 1   
    58    31    55 1   
@<TRIPOS>SUBSTRUCTURE
     1 DRF         1 TEMP              0 ****  ****    0 ROOT
