@<TRIPOS>MOLECULE
DRF
   55    58     1     0     0
SMALL
No Charge or Current Charge


@<TRIPOS>ATOM
      1 O45         -2.1970     0.4520    -7.4640 o          1 DRF      -0.724000
      2 C44         -1.0020     0.5110    -7.2040 c          1 DRF       0.697000
      3 O55         -0.1710     0.8950    -8.0180 o          1 DRF      -0.724000
      4 C41         -0.5380     0.0040    -5.7870 c3         1 DRF       0.035300
      5 O46          0.8890    -0.2700    -5.6830 os         1 DRF      -0.463000
      6 C48          1.3360    -1.4540    -6.3670 c3         1 DRF       0.178600
      7 C49          2.8470    -1.5960    -6.1190 c3         1 DRF      -0.088100
      8 C40         -0.8760     1.0550    -4.7000 c3         1 DRF      -0.022100
      9 C33         -0.6040     0.5590    -3.2820 ca         1 DRF      -0.069300
     10 C34          0.5290     1.0030    -2.5740 ca         1 DRF      -0.073000
     11 C35          0.7730     0.5440    -1.2690 ca         1 DRF      -0.176000
     12 C30         -0.1080    -0.3620    -0.6570 ca         1 DRF       0.105100
     13 O27          0.1850    -0.7770     0.6250 os         1 DRF      -0.353100
     14 C24         -0.6570    -1.6930     1.3480 c3         1 DRF       0.141600
     15 C23         -0.0530    -1.9440     2.7540 c3         1 DRF       0.086600
     16 N22          0.0110    -0.7410     3.6320 na         1 DRF      -0.094000
     17 C11         -1.0840    -0.4150     4.4660 ca         1 DRF      -0.014500
     18 C16         -0.8860     0.4410     5.5760 ca         1 DRF       0.121500
     19 O21          0.3530     0.9730     5.8300 os         1 DRF      -0.322000
     20 C4           1.3860     0.7990     4.9440 ca         1 DRF       0.121500
     21 C3           1.2310    -0.0490     3.8200 ca         1 DRF      -0.014500
     22 C2           2.3240    -0.1670     2.9240 ca         1 DRF      -0.138000
     23 C1           3.5250     0.5280     3.1550 ca         1 DRF      -0.101500
     24 C6           3.6590     1.3540     4.2810 ca         1 DRF      -0.122500
     25 C5           2.5870     1.4900     5.1740 ca         1 DRF      -0.108000
     26 C15         -1.9450     0.7740     6.4360 ca         1 DRF      -0.108000
     27 C14         -3.2290     0.2600     6.2020 ca         1 DRF      -0.122500
     28 C13         -3.4490    -0.5870     5.1060 ca         1 DRF      -0.101500
     29 C12         -2.3900    -0.9240     4.2440 ca         1 DRF      -0.138000
     30 C31         -1.2450    -0.8110    -1.3630 ca         1 DRF      -0.176000
     31 C32         -1.4880    -0.3500    -2.6690 ca         1 DRF      -0.073000
     32 H41         -1.1080    -0.9080    -5.5630 h1         1 DRF       0.013700
     33 H481         1.1480    -1.3860    -7.4460 h1         1 DRF       0.017700
     34 H482         0.8190    -2.3430    -5.9810 h1         1 DRF       0.017700
     35 H491         3.2300    -2.4940    -6.6180 hc         1 DRF       0.025033
     36 H492         3.3870    -0.7270    -6.5130 hc         1 DRF       0.025033
     37 H493         3.0570    -1.6840    -5.0460 hc         1 DRF       0.025033
     38 H401        -1.9350     1.3260    -4.7890 hc         1 DRF       0.059700
     39 H402        -0.3140     1.9740    -4.9050 hc         1 DRF       0.059700
     40 H34          1.2230     1.7010    -3.0380 ha         1 DRF       0.120000
     41 H35          1.6510     0.8900    -0.7290 ha         1 DRF       0.105500
     42 H241        -0.7240    -2.6510     0.8160 h1         1 DRF       0.038200
     43 H242        -1.6690    -1.2820     1.4450 h1         1 DRF       0.038200
     44 H231         0.9460    -2.3830     2.6460 h1         1 DRF       0.058200
     45 H232        -0.6540    -2.7110     3.2580 h1         1 DRF       0.058200
     46 H2           2.2670    -0.7910     2.0380 ha         1 DRF       0.123000
     47 H1           4.3530     0.4250     2.4570 ha         1 DRF       0.114000
     48 H6           4.5890     1.8910     4.4570 ha         1 DRF       0.114000
     49 H5           2.6810     2.1340     6.0450 ha         1 DRF       0.124000
     50 H15         -1.7690     1.4330     7.2820 ha         1 DRF       0.124000
     51 H14         -4.0510     0.5180     6.8670 ha         1 DRF       0.114000
     52 H13         -4.4450    -0.9860     4.9220 ha         1 DRF       0.114000
     53 H12         -2.6090    -1.5850     3.4120 ha         1 DRF       0.123000
     54 H31         -1.9460    -1.5110    -0.9190 ha         1 DRF       0.105500
     55 H32         -2.3660    -0.7010    -3.2070 ha         1 DRF       0.120000
@<TRIPOS>BOND
     1     1     2 1   
     2     2     3 1   
     3     2     4 1   
     4     4     5 1   
     5     4     8 1   
     6     4    32 1   
     7     5     6 1   
     8     6     7 1   
     9     6    33 1   
    10     6    34 1   
    11     7    35 1   
    12     7    36 1   
    13     7    37 1   
    14     8     9 1   
    15     8    38 1   
    16     8    39 1   
    17     9    10 ar  
    18     9    31 ar  
    19    10    11 ar  
    20    10    40 1   
    21    11    12 ar  
    22    11    41 1   
    23    12    13 1   
    24    12    30 ar  
    25    13    14 1   
    26    14    15 1   
    27    14    42 1   
    28    14    43 1   
    29    15    16 1   
    30    15    44 1   
    31    15    45 1   
    32    16    17 1   
    33    16    21 1   
    34    17    18 ar  
    35    17    29 ar  
    36    18    19 1   
    37    18    26 ar  
    38    19    20 1   
    39    20    21 ar  
    40    20    25 ar  
    41    21    22 ar  
    42    22    23 ar  
    43    22    46 1   
    44    23    24 ar  
    45    23    47 1   
    46    24    25 ar  
    47    24    48 1   
    48    25    49 1   
    49    26    27 ar  
    50    26    50 1   
    51    27    28 ar  
    52    27    51 1   
    53    28    29 ar  
    54    28    52 1   
    55    29    53 1   
    56    30    31 ar  
    57    30    54 1   
    58    31    55 1   
@<TRIPOS>SUBSTRUCTURE
     1 DRF         1 TEMP              0 ****  ****    0 ROOT
