@<TRIPOS>MOLECULE
DRG
   26    28     1     0     0
SMALL
bcc


@<TRIPOS>ATOM
      1 C4          -0.9380    -0.1250     2.3930 ca         1 DRG      -0.268300
      2 C14         -0.9370    -0.1560     1.0280 ca         1 DRG      -0.101600
      3 C5          -2.1570    -0.4040     0.1990 c6         1 DRG      -0.033100
      4 C6          -2.0990     0.3970    -1.0960 c6         1 DRG      -0.029100
      5 C11         -0.8020     0.1700    -1.8220 ca         1 DRG      -0.069300
      6 C7          -0.7440     0.1500    -3.2110 ca         1 DRG      -0.132000
      7 C8           0.4640    -0.0230    -3.8720 ca         1 DRG      -0.118000
      8 C9           1.6350    -0.1800    -3.1400 ca         1 DRG      -0.136000
      9 C10          1.5910    -0.1660    -1.7560 ca         1 DRG      -0.088000
     10 C12          0.3790     0.0080    -1.0860 ca         1 DRG      -0.134500
     11 C13          0.3070     0.0290     0.3830 ca         1 DRG       0.364800
     12 N1           1.4200     0.2060     1.0640 nb         1 DRG      -0.279000
     13 N2           1.4280     0.2220     2.3760 nb         1 DRG      -0.399000
     14 C3           0.2910     0.0720     3.0510 ca         1 DRG       0.605200
     15 N3           0.3610     0.1570     4.4030 nv         1 DRG      -0.943500
     16 HC4         -1.8510    -0.2570     2.9610 ha         1 DRG       0.144000
     17 HC51        -2.2050    -1.4730    -0.0360 hc         1 DRG       0.058700
     18 HC52        -3.0570    -0.1650     0.7650 hc         1 DRG       0.058700
     19 HC61        -2.9420     0.1340    -1.7370 hc         1 DRG       0.055200
     20 HC62        -2.2060     1.4630    -0.8670 hc         1 DRG       0.055200
     21 HC7         -1.6570     0.2730    -3.7820 ha         1 DRG       0.128000
     22 HC8          0.4910    -0.0390    -4.9540 ha         1 DRG       0.131000
     23 HC9          2.5800    -0.3230    -3.6480 ha         1 DRG       0.133000
     24 H10C         2.5000    -0.2980    -1.1830 ha         1 DRG       0.153000
     25 HN31         1.2730     0.0570     4.8180 hn         1 DRG       0.421800
     26 HN32        -0.3940    -0.2310     4.9440 hn         1 DRG       0.421800
@<TRIPOS>BOND
     1     1     2 ar  
     2     1    14 ar  
     3     1    16 1   
     4     2     3 1   
     5     2    11 ar  
     6     3     4 1   
     7     3    17 1   
     8     3    18 1   
     9     4     5 1   
    10     4    19 1   
    11     4    20 1   
    12     5     6 ar  
    13     5    10 ar  
    14     6     7 ar  
    15     6    21 1   
    16     7     8 ar  
    17     7    22 1   
    18     8     9 ar  
    19     8    23 1   
    20     9    10 ar  
    21     9    24 1   
    22    10    11 1   
    23    11    12 ar  
    24    12    13 ar  
    25    13    14 ar  
    26    14    15 1   
    27    15    25 1   
    28    15    26 1   
@<TRIPOS>SUBSTRUCTURE
     1 DRG         1 TEMP              0 ****  ****    0 ROOT
