@<TRIPOS>MOLECULE
DRI
   25    25     1     0     0
SMALL
abcg2


@<TRIPOS>ATOM
      1 O1           8.5370     7.6750    -5.0840 oh         1 DRI      -0.634000
      2 C1           7.2910     7.7880    -5.6690 c6         1 DRI       0.398300
      3 C5           6.1990     8.7720    -7.5190 c6         1 DRI       0.164300
      4 C2           6.3220     8.3860    -4.6660 c6         1 DRI      -0.105400
      5 C3           4.9720     8.6080    -5.3270 c6         1 DRI       0.149300
      6 O3           4.1260     9.2540    -4.4050 oh         1 DRI      -0.709000
      7 C4           5.1540     9.4280    -6.6040 c6         1 DRI       0.092300
      8 O4           3.9220     9.6990    -7.2390 os         1 DRI      -0.452000
      9 CME          3.2720     8.6220    -7.8800 c3         1 DRI       0.135900
     10 O5           7.4070     8.6300    -6.7960 os         1 DRI      -0.492000
     11 C6           6.4910     9.5950    -8.7580 c3         1 DRI      -0.085100
     12 HO1          9.0930     7.1080    -5.6300 ho         1 DRI       0.458000
     13 H1           6.9120     6.8060    -6.0030 h2         1 DRI       0.010700
     14 H5           5.8450     7.7740    -7.8250 h1         1 DRI       0.028700
     15 H2           6.7200     9.3390    -4.3030 hc         1 DRI       0.078700
     16 H22          6.2150     7.7160    -3.8090 hc         1 DRI       0.078700
     17 H3           4.5640     7.6200    -5.5970 h1         1 DRI       0.023700
     18 HO3          3.2940     9.4470    -4.8490 ho         1 DRI       0.515000
     19 H4           5.5420    10.4140    -6.3170 h1         1 DRI       0.101700
     20 H41          3.1730     7.7360    -7.2460 h1         1 DRI       0.031367
     21 H42          3.7700     8.3200    -8.8070 h1         1 DRI       0.031367
     22 H43          2.2690     8.9630    -8.1360 h1         1 DRI       0.031367
     23 H61          5.6040     9.6900    -9.3820 hc         1 DRI       0.049367
     24 H62          7.2660     9.1200    -9.3600 hc         1 DRI       0.049367
     25 H63          6.8270    10.5990    -8.4940 hc         1 DRI       0.049367
@<TRIPOS>BOND
     1     1     2 1   
     2     1    12 1   
     3     2     4 1   
     4     2    10 1   
     5     2    13 1   
     6     3     7 1   
     7     3    10 1   
     8     3    11 1   
     9     3    14 1   
    10     4     5 1   
    11     4    15 1   
    12     4    16 1   
    13     5     6 1   
    14     5     7 1   
    15     5    17 1   
    16     6    18 1   
    17     7     8 1   
    18     7    19 1   
    19     8     9 1   
    20     9    20 1   
    21     9    21 1   
    22     9    22 1   
    23    11    23 1   
    24    11    24 1   
    25    11    25 1   
@<TRIPOS>SUBSTRUCTURE
     1 DRI         1 TEMP              0 ****  ****    0 ROOT
