@<TRIPOS>MOLECULE
DRI
   25    25     1     0     0
SMALL
No Charge or Current Charge


@<TRIPOS>ATOM
      1 O1           8.5810     7.5570    -5.1050 oh         1 DRI      -0.634000
      2 C1           7.2870     7.6560    -5.6490 c6         1 DRI       0.398300
      3 C5           6.2130     8.7210    -7.5270 c6         1 DRI       0.164300
      4 C2           6.3150     8.2940    -4.6330 c6         1 DRI      -0.105400
      5 C3           4.9570     8.5640    -5.3180 c6         1 DRI       0.149300
      6 O3           4.0530     9.2190    -4.4190 oh         1 DRI      -0.709000
      7 C4           5.1660     9.4200    -6.6040 c6         1 DRI       0.092300
      8 O4           3.9070     9.7280    -7.2680 os         1 DRI      -0.452000
      9 CME          3.1400     8.6440    -7.8340 c3         1 DRI       0.135900
     10 O5           7.4380     8.5050    -6.7900 os         1 DRI      -0.492000
     11 C6           6.5840     9.5670    -8.7690 c3         1 DRI      -0.085100
     12 HO1          9.1390     7.9510    -5.8070 ho         1 DRI       0.458000
     13 H1           6.9290     6.6650    -5.9640 h2         1 DRI       0.010700
     14 H5           5.8330     7.7450    -7.8630 h1         1 DRI       0.028700
     15 H2           6.7390     9.2300    -4.2460 hc         1 DRI       0.078700
     16 H22          6.1790     7.6220    -3.7760 hc         1 DRI       0.078700
     17 H3           4.5360     7.5920    -5.6130 h1         1 DRI       0.023700
     18 HO3          3.3690     9.6390    -4.9920 ho         1 DRI       0.515000
     19 H4           5.6070    10.3790    -6.2920 h1         1 DRI       0.101700
     20 H41          2.8500     7.9160    -7.0660 h1         1 DRI       0.031367
     21 H42          3.7080     8.1220    -8.6150 h1         1 DRI       0.031367
     22 H43          2.2210     9.0310    -8.2930 h1         1 DRI       0.031367
     23 H61          5.7100     9.7340    -9.4080 hc         1 DRI       0.049367
     24 H62          7.3450     9.0610    -9.3750 hc         1 DRI       0.049367
     25 H63          6.9800    10.5470    -8.4790 hc         1 DRI       0.049367
@<TRIPOS>BOND
     1     1     2 1   
     2     1    12 1   
     3     2     4 1   
     4     2    10 1   
     5     2    13 1   
     6     3     7 1   
     7     3    10 1   
     8     3    11 1   
     9     3    14 1   
    10     4     5 1   
    11     4    15 1   
    12     4    16 1   
    13     5     6 1   
    14     5     7 1   
    15     5    17 1   
    16     6    18 1   
    17     7     8 1   
    18     7    19 1   
    19     8     9 1   
    20     9    20 1   
    21     9    21 1   
    22     9    22 1   
    23    11    23 1   
    24    11    24 1   
    25    11    25 1   
@<TRIPOS>SUBSTRUCTURE
     1 DRI         1 TEMP              0 ****  ****    0 ROOT
