@<TRIPOS>MOLECULE
DRJ
   68    70     1     0     0
SMALL
abcg2


@<TRIPOS>ATOM
      1 CAB         21.2820    19.9030    22.0610 c3         1 DRJ      -0.075100
      2 CAO         21.3880    19.4460    20.6090 c3         1 DRJ      -0.055400
      3 CBG         20.0820    18.9240    19.9890 c3         1 DRJ       0.047000
      4 CAZ         19.5780    17.7160    20.8520 c          1 DRJ       0.700000
      5 OAE         20.2590    16.6660    20.7880 o          1 DRJ      -0.711000
      6 OAD         18.5620    17.9100    21.5620 o          1 DRJ      -0.711000
      7 CAC         19.0650    20.0460    19.8340 c3         1 DRJ      -0.089100
      8 OAX         20.5150    18.4820    18.6710 os         1 DRJ      -0.358100
      9 CBB         19.6540    17.9340    17.7720 ca         1 DRJ       0.204100
     10 CAK         18.3790    17.4430    18.0600 ca         1 DRJ      -0.173500
     11 CAI         17.6050    16.8930    17.0430 ca         1 DRJ      -0.078000
     12 CAJ         20.1280    17.8490    16.4590 ca         1 DRJ      -0.173500
     13 CAH         19.3430    17.2950    15.4590 ca         1 DRJ      -0.078000
     14 CBA         18.0630    16.8070    15.7300 ca         1 DRJ      -0.168300
     15 CAT         17.1770    16.2740    14.6360 c3         1 DRJ      -0.034100
     16 CAV         16.3200    17.3990    14.0320 c3         1 DRJ       0.228800
     17 NBF         15.3640    16.9530    13.0190 nh         1 DRJ      -0.743600
     18 CAU         13.9670    16.7240    13.3910 c3         1 DRJ       0.240800
     19 CAS         13.7000    15.3500    14.0000 c3         1 DRJ      -0.103400
     20 CAR         12.2200    15.1440    14.3110 c3         1 DRJ      -0.070400
     21 CAQ         11.9240    13.7860    14.9420 c3         1 DRJ      -0.075400
     22 CAP         10.4460    13.5750    15.2610 c3         1 DRJ      -0.075400
     23 CAN         10.1480    12.2190    15.8960 c3         1 DRJ      -0.076400
     24 CAA          8.6680    12.0200    16.2160 c3         1 DRJ      -0.087100
     25 CBC         15.7620    16.6400    11.7830 cc         1 DRJ       0.788500
     26 OAY         17.0880    16.8620    11.4850 os         1 DRJ      -0.311700
     27 CBE         17.2110    16.4800    10.1620 ca         1 DRJ       0.009100
     28 CAM         18.3350    16.4990     9.3690 ca         1 DRJ      -0.079000
     29 CAG         18.1610    16.0510     8.0540 ca         1 DRJ      -0.126000
     30 CAF         16.9140    15.6150     7.5980 ca         1 DRJ      -0.118000
     31 CAL         15.7910    15.6050     8.4270 ca         1 DRJ      -0.085000
     32 CBD         15.9510    16.0480     9.7360 ca         1 DRJ       0.110400
     33 NAW         15.0510    16.1560    10.7940 nd         1 DRJ      -0.680100
     34 HAB1        20.9580    19.0900    22.7140 hc         1 DRJ       0.027033
     35 HAB2        22.2560    20.2450    22.4150 hc         1 DRJ       0.027033
     36 HAB3        20.5780    20.7290    22.1780 hc         1 DRJ       0.027033
     37 HAO1        22.1250    18.6440    20.5310 hc         1 DRJ       0.035700
     38 HAO2        21.7420    20.2720    19.9850 hc         1 DRJ       0.035700
     39 HAC1        18.8150    20.4690    20.8050 hc         1 DRJ       0.028700
     40 HAC2        19.4900    20.8340    19.2090 hc         1 DRJ       0.028700
     41 HAC3        18.1390    19.7020    19.3780 hc         1 DRJ       0.028700
     42 HAK         17.9800    17.4830    19.0620 ha         1 DRJ       0.137000
     43 HAI         16.6160    16.5200    17.2850 ha         1 DRJ       0.094000
     44 HAJ         21.1190    18.2260    16.2390 ha         1 DRJ       0.137000
     45 HAH         19.7310    17.2440    14.4470 ha         1 DRJ       0.094000
     46 HAT1        16.5180    15.5000    15.0330 hc         1 DRJ       0.046200
     47 HAT2        17.7780    15.8220    13.8460 hc         1 DRJ       0.046200
     48 HAV1        16.9710    18.1610    13.6010 h1         1 DRJ       0.062200
     49 HAV2        15.7360    17.8740    14.8190 h1         1 DRJ       0.062200
     50 HAU1        13.6900    17.5080    14.0990 h1         1 DRJ       0.059700
     51 HAU2        13.3590    16.8570    12.4960 h1         1 DRJ       0.059700
     52 HAS1        14.0450    14.5790    13.3050 hc         1 DRJ       0.054200
     53 HAS2        14.2840    15.2370    14.9180 hc         1 DRJ       0.054200
     54 HAR1        11.8790    15.9380    14.9850 hc         1 DRJ       0.036700
     55 HAR2        11.6380    15.2510    13.3890 hc         1 DRJ       0.036700
     56 HAQ1        12.2660    12.9930    14.2680 hc         1 DRJ       0.041200
     57 HAQ2        12.5100    13.6810    15.8620 hc         1 DRJ       0.041200
     58 HAP1        10.1040    14.3700    15.9340 hc         1 DRJ       0.035200
     59 HAP2         9.8590    13.6790    14.3410 hc         1 DRJ       0.035200
     60 HAN1        10.4870    11.4250    15.2220 hc         1 DRJ       0.038200
     61 HAN2        10.7380    12.1150    16.8130 hc         1 DRJ       0.038200
     62 HAA1         8.4830    11.0420    16.6650 hc         1 DRJ       0.029700
     63 HAA2         8.3140    12.7820    16.9170 hc         1 DRJ       0.029700
     64 HAA3         8.0590    12.0950    15.3110 hc         1 DRJ       0.029700
     65 HAM         19.2930    16.8410     9.7360 ha         1 DRJ       0.130000
     66 HAG         19.0090    16.0440     7.3810 ha         1 DRJ       0.110000
     67 HAF         16.8170    15.2770     6.5740 ha         1 DRJ       0.107000
     68 HAL         14.8280    15.2650     8.0660 ha         1 DRJ       0.125000
@<TRIPOS>BOND
     1     1     2 1   
     2     1    34 1   
     3     1    35 1   
     4     1    36 1   
     5     2     3 1   
     6     2    37 1   
     7     2    38 1   
     8     3     4 1   
     9     3     7 1   
    10     3     8 1   
    11     4     5 1   
    12     4     6 1   
    13     7    39 1   
    14     7    40 1   
    15     7    41 1   
    16     8     9 1   
    17     9    10 ar  
    18     9    12 ar  
    19    10    11 ar  
    20    10    42 1   
    21    11    14 ar  
    22    11    43 1   
    23    12    13 ar  
    24    12    44 1   
    25    13    14 ar  
    26    13    45 1   
    27    14    15 1   
    28    15    16 1   
    29    15    46 1   
    30    15    47 1   
    31    16    17 1   
    32    16    48 1   
    33    16    49 1   
    34    17    18 1   
    35    17    25 1   
    36    18    19 1   
    37    18    50 1   
    38    18    51 1   
    39    19    20 1   
    40    19    52 1   
    41    19    53 1   
    42    20    21 1   
    43    20    54 1   
    44    20    55 1   
    45    21    22 1   
    46    21    56 1   
    47    21    57 1   
    48    22    23 1   
    49    22    58 1   
    50    22    59 1   
    51    23    24 1   
    52    23    60 1   
    53    23    61 1   
    54    24    62 1   
    55    24    63 1   
    56    24    64 1   
    57    25    26 1   
    58    25    33 2   
    59    26    27 1   
    60    27    28 ar  
    61    27    32 ar  
    62    28    29 ar  
    63    28    65 1   
    64    29    30 ar  
    65    29    66 1   
    66    30    31 ar  
    67    30    67 1   
    68    31    32 ar  
    69    31    68 1   
    70    32    33 1   
@<TRIPOS>SUBSTRUCTURE
     1 DRJ         1 TEMP              0 ****  ****    0 ROOT
