@<TRIPOS>MOLECULE
DRJ
   68    70     1     0     0
SMALL
No Charge or Current Charge


@<TRIPOS>ATOM
      1 CAB         21.7400    20.0870    22.0560 c3         1 DRJ      -0.075100
      2 CAO         21.6890    19.5990    20.5890 c3         1 DRJ      -0.055400
      3 CBG         20.3200    19.0340    20.0940 c3         1 DRJ       0.047000
      4 CAZ         19.9330    17.7850    20.9900 c          1 DRJ       0.700000
      5 OAE         20.3460    16.6760    20.6710 o          1 DRJ      -0.711000
      6 OAD         19.1420    17.9440    21.9110 o          1 DRJ      -0.711000
      7 CAC         19.2390    20.1620    20.0790 c3         1 DRJ      -0.089100
      8 OAX         20.5950    18.6760    18.7050 os         1 DRJ      -0.358100
      9 CBB         19.6990    18.0980    17.8160 ca         1 DRJ       0.204100
     10 CAK         18.4300    17.5950    18.1810 ca         1 DRJ      -0.173500
     11 CAI         17.5870    17.0270    17.2100 ca         1 DRJ      -0.078000
     12 CAJ         20.1050    18.0120    16.4740 ca         1 DRJ      -0.173500
     13 CAH         19.2640    17.4450    15.5030 ca         1 DRJ      -0.078000
     14 CBA         17.9990    16.9490    15.8670 ca         1 DRJ      -0.168300
     15 CAT         17.0810    16.3420    14.8140 c3         1 DRJ      -0.034100
     16 CAV         16.2090    17.4100    14.1200 c3         1 DRJ       0.228800
     17 NBF         15.3170    16.8660    13.0710 nh         1 DRJ      -0.743600
     18 CAU         13.8890    16.6880    13.4110 c3         1 DRJ       0.240800
     19 CAS         13.5540    15.2670    13.9090 c3         1 DRJ      -0.103400
     20 CAR         12.0560    15.0770    14.2330 c3         1 DRJ      -0.070400
     21 CAQ         11.7230    13.6550    14.7350 c3         1 DRJ      -0.075400
     22 CAP         10.2250    13.4640    15.0590 c3         1 DRJ      -0.075400
     23 CAN          9.8910    12.0420    15.5600 c3         1 DRJ      -0.076400
     24 CAA          8.3970    11.8520    15.8840 c3         1 DRJ      -0.087100
     25 CBC         15.7940    16.5730    11.8130 cc         1 DRJ       0.788500
     26 OAY         17.1360    16.8050    11.5410 os         1 DRJ      -0.311700
     27 CBE         17.2110    16.4040    10.2510 ca         1 DRJ       0.009100
     28 CAM         18.3490    16.4080     9.4350 ca         1 DRJ      -0.079000
     29 CAG         18.2060    15.9430     8.1100 ca         1 DRJ      -0.126000
     30 CAF         16.9460    15.4940     7.6440 ca         1 DRJ      -0.118000
     31 CAL         15.8220    15.5060     8.5000 ca         1 DRJ      -0.085000
     32 CBD         15.9940    15.9720     9.8110 ca         1 DRJ       0.110400
     33 NAW         15.0540    16.0750    10.8120 nd         1 DRJ      -0.680100
     34 HAB1        21.4870    19.2800    22.7530 hc         1 DRJ       0.027033
     35 HAB2        22.7510    20.4340    22.3000 hc         1 DRJ       0.027033
     36 HAB3        21.0530    20.9240    22.2240 hc         1 DRJ       0.027033
     37 HAO1        22.4530    18.8210    20.4670 hc         1 DRJ       0.035700
     38 HAO2        21.9910    20.4300    19.9400 hc         1 DRJ       0.035700
     39 HAC1        19.0760    20.5690    21.0830 hc         1 DRJ       0.028700
     40 HAC2        19.5520    20.9890    19.4300 hc         1 DRJ       0.028700
     41 HAC3        18.2700    19.8020    19.7210 hc         1 DRJ       0.028700
     42 HAK         18.0800    17.6270    19.2060 ha         1 DRJ       0.137000
     43 HAI         16.6110    16.6460    17.5040 ha         1 DRJ       0.094000
     44 HAJ         21.0810    18.3930    16.1860 ha         1 DRJ       0.137000
     45 HAH         19.5950    17.3930    14.4680 ha         1 DRJ       0.094000
     46 HAT1        16.4300    15.5880    15.2710 hc         1 DRJ       0.046200
     47 HAT2        17.6760    15.8140    14.0590 hc         1 DRJ       0.046200
     48 HAV1        16.8700    18.1720    13.6850 h1         1 DRJ       0.062200
     49 HAV2        15.6180    17.9220    14.8910 h1         1 DRJ       0.062200
     50 HAU1        13.5950    17.4070    14.1880 h1         1 DRJ       0.059700
     51 HAU2        13.2630    16.9110    12.5360 h1         1 DRJ       0.059700
     52 HAS1        13.8540    14.5390    13.1450 hc         1 DRJ       0.054200
     53 HAS2        14.1450    15.0520    14.8070 hc         1 DRJ       0.054200
     54 HAR1        11.7570    15.8080    14.9960 hc         1 DRJ       0.036700
     55 HAR2        11.4640    15.2910    13.3350 hc         1 DRJ       0.036700
     56 HAQ1        12.0220    12.9250    13.9720 hc         1 DRJ       0.041200
     57 HAQ2        12.3160    13.4420    15.6330 hc         1 DRJ       0.041200
     58 HAP1         9.9250    14.1940    15.8210 hc         1 DRJ       0.035200
     59 HAP2         9.6320    13.6780    14.1600 hc         1 DRJ       0.035200
     60 HAN1        10.1870    11.3090    14.7990 hc         1 DRJ       0.038200
     61 HAN2        10.4810    11.8260    16.4600 hc         1 DRJ       0.038200
     62 HAA1         8.2090    10.8300    16.2350 hc         1 DRJ       0.029700
     63 HAA2         8.0780    12.5480    16.6680 hc         1 DRJ       0.029700
     64 HAA3         7.7810    12.0270    14.9930 hc         1 DRJ       0.029700
     65 HAM         19.3080    16.7570     9.8110 ha         1 DRJ       0.130000
     66 HAG         19.0660    15.9300     7.4440 ha         1 DRJ       0.110000
     67 HAF         16.8420    15.1370     6.6220 ha         1 DRJ       0.107000
     68 HAL         14.8500    15.1640     8.1550 ha         1 DRJ       0.125000
@<TRIPOS>BOND
     1     1     2 1   
     2     1    34 1   
     3     1    35 1   
     4     1    36 1   
     5     2     3 1   
     6     2    37 1   
     7     2    38 1   
     8     3     4 1   
     9     3     7 1   
    10     3     8 1   
    11     4     5 1   
    12     4     6 1   
    13     7    39 1   
    14     7    40 1   
    15     7    41 1   
    16     8     9 1   
    17     9    10 ar  
    18     9    12 ar  
    19    10    11 ar  
    20    10    42 1   
    21    11    14 ar  
    22    11    43 1   
    23    12    13 ar  
    24    12    44 1   
    25    13    14 ar  
    26    13    45 1   
    27    14    15 1   
    28    15    16 1   
    29    15    46 1   
    30    15    47 1   
    31    16    17 1   
    32    16    48 1   
    33    16    49 1   
    34    17    18 1   
    35    17    25 1   
    36    18    19 1   
    37    18    50 1   
    38    18    51 1   
    39    19    20 1   
    40    19    52 1   
    41    19    53 1   
    42    20    21 1   
    43    20    54 1   
    44    20    55 1   
    45    21    22 1   
    46    21    56 1   
    47    21    57 1   
    48    22    23 1   
    49    22    58 1   
    50    22    59 1   
    51    23    24 1   
    52    23    60 1   
    53    23    61 1   
    54    24    62 1   
    55    24    63 1   
    56    24    64 1   
    57    25    26 1   
    58    25    33 2   
    59    26    27 1   
    60    27    28 ar  
    61    27    32 ar  
    62    28    29 ar  
    63    28    65 1   
    64    29    30 ar  
    65    29    66 1   
    66    30    31 ar  
    67    30    67 1   
    68    31    32 ar  
    69    31    68 1   
    70    32    33 1   
@<TRIPOS>SUBSTRUCTURE
     1 DRJ         1 TEMP              0 ****  ****    0 ROOT
