@<TRIPOS>MOLECULE
DRK
   46    49     1     0     0
SMALL
bcc


@<TRIPOS>ATOM
      1 OAA         -0.3170     2.5630    -0.1170 oh         1 DRK      -0.575600
      2 CAS         -1.5700     2.1930     0.0340 cc         1 DRK       0.686900
      3 NAP         -2.5100     3.0790    -0.0610 nd         1 DRK      -0.609100
      4 CAW         -3.7040     2.4080     0.1370 ca         1 DRK       0.146400
      5 CAH         -4.9720     2.9660     0.1110 ca         1 DRK      -0.104000
      6 CAE         -6.0690     2.1360     0.3180 ca         1 DRK      -0.115000
      7 CAG         -5.8950     0.7740     0.5410 ca         1 DRK      -0.150000
      8 CAK         -4.6220     0.2120     0.5680 ca         1 DRK      -0.100000
      9 CAZ         -3.5140     1.0280     0.3730 ca         1 DRK      -0.116800
     10 CAV         -2.0690     0.8370     0.3210 cc         1 DRK      -0.260800
     11 CAT         -1.3750    -0.3260     0.5280 cd         1 DRK       0.037300
     12 NAQ         -1.9570    -1.5080     0.8520 na         1 DRK      -0.233400
     13 CAX         -1.0410    -2.5290     1.0110 ca         1 DRK       0.037800
     14 CAI         -1.2800    -3.8480     1.3470 ca         1 DRK      -0.171000
     15 CAD         -0.1740    -4.6850     1.4470 ca         1 DRK      -0.069000
     16 CAF          1.1170    -4.2160     1.2190 ca         1 DRK      -0.174000
     17 CAJ          1.3420    -2.8880     0.8820 ca         1 DRK      -0.029000
     18 CAY          0.2460    -2.0380     0.7780 ca         1 DRK      -0.230900
     19 CAU          0.0820    -0.6270     0.4650 cd         1 DRK       0.477200
     20 NAO          0.9400     0.2730     0.1700 n2         1 DRK      -0.435200
     21 OAR          2.2020    -0.1550     0.1420 os         1 DRK      -0.171300
     22 CAM          3.1120     0.9050    -0.1780 c3         1 DRK       0.140400
     23 CAN          4.4950     0.2930    -0.2300 c3         1 DRK      -0.123400
     24 CBA          5.5760     1.3500    -0.4490 c3         1 DRK       0.145100
     25 OAC          5.3390     2.1270    -1.6030 oh         1 DRK      -0.573800
     26 CAL          6.9460     0.6930    -0.4680 c3         1 DRK       0.108400
     27 OAB          7.9360     1.6890    -0.5330 oh         1 DRK      -0.579800
     28 HAH         -5.1010     4.0260    -0.0690 ha         1 DRK       0.148000
     29 HAE         -7.0670     2.5530     0.3000 ha         1 DRK       0.130000
     30 HAG         -6.7570     0.1390     0.6940 ha         1 DRK       0.127000
     31 HAK         -4.5560    -0.8560     0.7290 ha         1 DRK       0.107000
     32 HAI         -2.2820    -4.2150     1.5250 ha         1 DRK       0.145000
     33 HAD         -0.3260    -5.7240     1.7070 ha         1 DRK       0.137000
     34 HAF          1.9550    -4.8940     1.3060 ha         1 DRK       0.139000
     35 HAJ          2.3480    -2.5400     0.7080 ha         1 DRK       0.149000
     36 HNAO         0.2990     1.7920    -0.0460 ho         1 DRK       0.474000
     37 HAM          2.8320     1.3460    -1.1360 h1         1 DRK       0.060200
     38 HAMA         3.0540     1.6770     0.5950 h1         1 DRK       0.060200
     39 HAN          4.6990    -0.2220     0.7130 hc         1 DRK       0.056200
     40 HANA         4.5410    -0.4600    -1.0240 hc         1 DRK       0.056200
     41 HBA          5.5440     2.0560     0.3870 h1         1 DRK       0.090700
     42 HOAC         5.3770     1.5500    -2.3740 ho         1 DRK       0.399000
     43 HAL          7.0470     0.0760     0.4350 h1         1 DRK       0.019200
     44 HALA         7.0010     0.0060    -1.3260 h1         1 DRK       0.019200
     45 HOAB         8.7940     1.2560    -0.5560 ho         1 DRK       0.406000
     46 HNAQ        -2.9400    -1.6310     1.0160 hn         1 DRK       0.317700
@<TRIPOS>BOND
     1     1     2 1   
     2     1    36 1   
     3     2     3 2   
     4     2    10 1   
     5     3     4 1   
     6     4     5 ar  
     7     4     9 ar  
     8     5     6 ar  
     9     5    28 1   
    10     6     7 ar  
    11     6    29 1   
    12     7     8 ar  
    13     7    30 1   
    14     8     9 ar  
    15     8    31 1   
    16     9    10 1   
    17    10    11 2   
    18    11    12 1   
    19    11    19 1   
    20    12    13 1   
    21    12    46 1   
    22    13    14 ar  
    23    13    18 ar  
    24    14    15 ar  
    25    14    32 1   
    26    15    16 ar  
    27    15    33 1   
    28    16    17 ar  
    29    16    34 1   
    30    17    18 ar  
    31    17    35 1   
    32    18    19 1   
    33    19    20 2   
    34    20    21 1   
    35    21    22 1   
    36    22    23 1   
    37    22    37 1   
    38    22    38 1   
    39    23    24 1   
    40    23    39 1   
    41    23    40 1   
    42    24    25 1   
    43    24    26 1   
    44    24    41 1   
    45    25    42 1   
    46    26    27 1   
    47    26    43 1   
    48    26    44 1   
    49    27    45 1   
@<TRIPOS>SUBSTRUCTURE
     1 DRK         1 TEMP              0 ****  ****    0 ROOT
