@<TRIPOS>MOLECULE
DRK
   46    49     1     0     0
SMALL
No Charge or Current Charge


@<TRIPOS>ATOM
      1 OAA         -0.4080     2.6270     0.1280 oh         1 DRK      -0.614600
      2 CAS         -1.6830     2.2450     0.1870 cc         1 DRK       0.686900
      3 NAP         -2.6310     3.1690     0.1020 nd         1 DRK      -0.609100
      4 CAW         -3.7990     2.4040     0.2330 ca         1 DRK       0.146400
      5 CAH         -5.1000     2.9250     0.1960 ca         1 DRK      -0.086000
      6 CAE         -6.1930     2.0450     0.3120 ca         1 DRK      -0.097000
      7 CAG         -5.9750     0.6590     0.4510 ca         1 DRK      -0.132000
      8 CAK         -4.6670     0.1370     0.4880 ca         1 DRK      -0.082000
      9 CAZ         -3.5810     1.0360     0.3950 ca         1 DRK      -0.116800
     10 CAV         -2.1360     0.8920     0.3820 cc         1 DRK      -0.260800
     11 CAT         -1.4090    -0.3010     0.5600 cd         1 DRK       0.037300
     12 NAQ         -2.1190    -1.4550     0.9140 na         1 DRK      -0.283700
     13 CAX         -1.1470    -2.4470     1.0430 ca         1 DRK       0.037800
     14 CAI         -1.3870    -3.7830     1.3850 ca         1 DRK      -0.153000
     15 CAD         -0.2940    -4.6670     1.4750 ca         1 DRK      -0.051000
     16 CAF          1.0170    -4.2040     1.2230 ca         1 DRK      -0.156000
     17 CAJ          1.2510    -2.8570     0.8800 ca         1 DRK      -0.011000
     18 CAY          0.1420    -1.9900     0.7960 ca         1 DRK      -0.230900
     19 CAU          0.0090    -0.5730     0.4750 cd         1 DRK       0.477200
     20 NAO          0.9440     0.2770     0.1580 n2         1 DRK      -0.336700
     21 OAR          2.2670    -0.2020     0.1290 os         1 DRK      -0.293000
     22 CAM          3.1750     0.8480    -0.2470 c3         1 DRK       0.163600
     23 CAN          4.5960     0.2470    -0.2530 c3         1 DRK      -0.123400
     24 CBA          5.7000     1.2790    -0.5730 c3         1 DRK       0.168300
     25 OAC          5.5000     1.8010    -1.8930 oh         1 DRK      -0.636000
     26 CAL          7.1260     0.6690    -0.4920 c3         1 DRK       0.131600
     27 OAB          8.1060     1.6460    -0.8830 oh         1 DRK      -0.642000
     28 HAH         -5.2600     3.9930     0.0730 ha         1 DRK       0.130000
     29 HAE         -7.2080     2.4350     0.2820 ha         1 DRK       0.112000
     30 HAG         -6.8260    -0.0150     0.5230 ha         1 DRK       0.109000
     31 HAK         -4.5470    -0.9360     0.5650 ha         1 DRK       0.089000
     32 HAI         -2.3980    -4.1350     1.5770 ha         1 DRK       0.127000
     33 HAD         -0.4590    -5.7090     1.7390 ha         1 DRK       0.119000
     34 HAF          1.8550    -4.8940     1.2950 ha         1 DRK       0.121000
     35 HAJ          2.2670    -2.5240     0.6910 ha         1 DRK       0.131000
     36 HNAO         0.0990     1.7900     0.1540 ho         1 DRK       0.513000
     37 HAM          2.9310     1.2360    -1.2440 h1         1 DRK       0.060200
     38 HAMA         3.1300     1.6780     0.4710 h1         1 DRK       0.060200
     39 HAN          4.7960    -0.1910     0.7330 hc         1 DRK       0.056200
     40 HANA         4.6370    -0.5720    -0.9820 hc         1 DRK       0.056200
     41 HBA          5.6430     2.0890     0.1690 h1         1 DRK       0.090700
     42 HOAC         6.3820     2.1470    -2.1590 ho         1 DRK       0.438000
     43 HAL          7.3140     0.3340     0.5360 h1         1 DRK       0.019200
     44 HALA         7.1850    -0.2110    -1.1470 h1         1 DRK       0.019200
     45 HOAB         8.9900     1.2310    -0.7650 ho         1 DRK       0.445000
     46 HNAQ        -3.1080    -1.5340     1.1050 hn         1 DRK       0.368000
@<TRIPOS>BOND
     1     1     2 1   
     2     1    36 1   
     3     2     3 2   
     4     2    10 1   
     5     3     4 1   
     6     4     5 ar  
     7     4     9 ar  
     8     5     6 ar  
     9     5    28 1   
    10     6     7 ar  
    11     6    29 1   
    12     7     8 ar  
    13     7    30 1   
    14     8     9 ar  
    15     8    31 1   
    16     9    10 1   
    17    10    11 2   
    18    11    12 1   
    19    11    19 1   
    20    12    13 1   
    21    12    46 1   
    22    13    14 ar  
    23    13    18 ar  
    24    14    15 ar  
    25    14    32 1   
    26    15    16 ar  
    27    15    33 1   
    28    16    17 ar  
    29    16    34 1   
    30    17    18 ar  
    31    17    35 1   
    32    18    19 1   
    33    19    20 2   
    34    20    21 1   
    35    21    22 1   
    36    22    23 1   
    37    22    37 1   
    38    22    38 1   
    39    23    24 1   
    40    23    39 1   
    41    23    40 1   
    42    24    25 1   
    43    24    26 1   
    44    24    41 1   
    45    25    42 1   
    46    26    27 1   
    47    26    43 1   
    48    26    44 1   
    49    27    45 1   
@<TRIPOS>SUBSTRUCTURE
     1 DRK         1 TEMP              0 ****  ****    0 ROOT
