@<TRIPOS>MOLECULE
DRL
   22    23     1     0     0
SMALL
bcc


@<TRIPOS>ATOM
      1 C1A          3.6630     1.2230     0.1310 c3         1 DRL      -0.145400
      2 C1I          2.2870     0.6590     0.0420 cc         1 DRL       0.510900
      3 N1G          1.2480     1.4280     0.0350 nd         1 DRL      -0.651300
      4 C1J          0.0110     0.8520    -0.0380 cd         1 DRL       0.200400
      5 C1D         -1.1070     1.8540    -0.0580 c6         1 DRL      -0.034200
      6 C1C         -2.4470     1.3090    -0.5050 c6         1 DRL       0.009700
      7 S1H         -2.8840    -0.1710     0.4380 ss         1 DRL      -0.326200
      8 C1E         -1.5090    -1.1910    -0.1390 c6         1 DRL       0.075900
      9 C1K         -0.1800    -0.4990    -0.0810 cc         1 DRL      -0.256400
     10 C1L          0.9770    -1.3620    -0.1030 c          1 DRL       0.704700
     11 O1B          0.9520    -2.5830    -0.1790 o          1 DRL      -0.623500
     12 N1F          2.1790    -0.6850    -0.0300 ns         1 DRL      -0.475400
     13 H1A          3.6220     2.3080     0.1370 hc         1 DRL       0.068700
     14 H1AA         4.1580     0.8830     1.0420 hc         1 DRL       0.068700
     15 H1AB         4.2710     0.8950    -0.7140 hc         1 DRL       0.068700
     16 H1D         -1.1950     2.2860     0.9440 hc         1 DRL       0.076200
     17 H1DA        -0.8060     2.6750    -0.7150 hc         1 DRL       0.076200
     18 H1C         -3.2340     2.0450    -0.3420 h1         1 DRL       0.073700
     19 H1CA        -2.4400     1.0650    -1.5690 h1         1 DRL       0.073700
     20 H1E         -1.4950    -2.0760     0.4990 h1         1 DRL       0.086700
     21 H1EA        -1.7150    -1.5390    -1.1540 h1         1 DRL       0.086700
     22 HN1F         3.0210    -1.2480    -0.0390 hn         1 DRL       0.331500
@<TRIPOS>BOND
     1     1     2 1   
     2     1    13 1   
     3     1    14 1   
     4     1    15 1   
     5     2     3 2   
     6     2    12 1   
     7     3     4 1   
     8     4     5 1   
     9     4     9 2   
    10     5     6 1   
    11     5    16 1   
    12     5    17 1   
    13     6     7 1   
    14     6    18 1   
    15     6    19 1   
    16     7     8 1   
    17     8     9 1   
    18     8    20 1   
    19     8    21 1   
    20     9    10 1   
    21    10    11 2   
    22    10    12 1   
    23    12    22 1   
@<TRIPOS>SUBSTRUCTURE
     1 DRL         1 TEMP              0 ****  ****    0 ROOT
