@<TRIPOS>MOLECULE
DRL
   22    23     1     0     0
SMALL
No Charge or Current Charge


@<TRIPOS>ATOM
      1 C1A          3.7120     1.1570     0.0950 c3         1 DRL      -0.145400
      2 C1I          2.2990     0.6600     0.0380 cc         1 DRL       0.510900
      3 N1G          1.2700     1.4960     0.0320 nd         1 DRL      -0.651300
      4 C1J         -0.0130     0.9350    -0.0230 cd         1 DRL       0.200400
      5 C1D         -1.1840     1.9050    -0.0190 c6         1 DRL      -0.034200
      6 C1C         -2.5000     1.3100    -0.5420 c6         1 DRL       0.057600
      7 S1H         -2.9300    -0.2050     0.3940 ss         1 DRL      -0.422000
      8 C1E         -1.4710    -1.1990    -0.1360 c6         1 DRL       0.123800
      9 C1K         -0.1450    -0.4570    -0.0570 cc         1 DRL      -0.256400
     10 C1L          1.0210    -1.3490    -0.0600 c          1 DRL       0.562200
     11 O1B          0.9820    -2.5680    -0.1090 o          1 DRL      -0.548000
     12 N1F          2.1890    -0.6900    -0.0070 ns         1 DRL      -0.408400
     13 H1A          3.7440     2.2520     0.1320 hc         1 DRL       0.068700
     14 H1AA         4.2240     0.7770     0.9860 hc         1 DRL       0.068700
     15 H1AB         4.2730     0.8360    -0.7900 hc         1 DRL       0.068700
     16 H1D         -1.3430     2.2700     1.0040 hc         1 DRL       0.076200
     17 H1DA        -0.9380     2.7930    -0.6170 hc         1 DRL       0.076200
     18 H1C         -3.3170     2.0380    -0.4320 h1         1 DRL       0.073700
     19 H1CA        -2.4060     1.0530    -1.6070 h1         1 DRL       0.073700
     20 H1E         -1.4590    -2.1020     0.4920 h1         1 DRL       0.086700
     21 H1EA        -1.6550    -1.5300    -1.1680 h1         1 DRL       0.086700
     22 HN1F         3.0250    -1.2550    -0.0040 hn         1 DRL       0.331500
@<TRIPOS>BOND
     1     1     2 1   
     2     1    13 1   
     3     1    14 1   
     4     1    15 1   
     5     2     3 2   
     6     2    12 1   
     7     3     4 1   
     8     4     5 1   
     9     4     9 2   
    10     5     6 1   
    11     5    16 1   
    12     5    17 1   
    13     6     7 1   
    14     6    18 1   
    15     6    19 1   
    16     7     8 1   
    17     8     9 1   
    18     8    20 1   
    19     8    21 1   
    20     9    10 1   
    21    10    11 2   
    22    10    12 1   
    23    12    22 1   
@<TRIPOS>SUBSTRUCTURE
     1 DRL         1 TEMP              0 ****  ****    0 ROOT
