@<TRIPOS>MOLECULE
DRN
   56    60     1     0     0
SMALL
No Charge or Current Charge


@<TRIPOS>ATOM
      1 CBD        -22.0340   -28.5160   -12.6860 c2         1 DRN       0.680100
      2 NBC        -22.4790   -27.5270   -13.3160 n2         1 DRN      -0.813100
      3 CBF        -19.0930   -29.0750   -11.2480 c3         1 DRN      -0.113400
      4 CBE        -19.8890   -30.2240   -11.8960 c3         1 DRN       0.081600
      5 NAH        -14.5900   -26.4870   -13.9790 na         1 DRN      -0.079700
      6 CAW        -13.7950   -26.1890   -12.8570 cc         1 DRN      -0.102100
      7 CAE        -15.9380   -26.3660   -13.6740 ca         1 DRN      -0.061200
      8 CAF        -17.0550   -26.4960   -14.5160 ca         1 DRN      -0.124000
      9 CAA        -18.3290   -26.2280   -13.9740 ca         1 DRN      -0.095000
     10 CAB        -18.4590   -25.8060   -12.6310 ca         1 DRN      -0.138000
     11 CAC        -17.3200   -25.6770   -11.8100 ca         1 DRN      -0.064000
     12 CAD        -16.0680   -26.0120   -12.3550 ca         1 DRN      -0.070800
     13 CAG        -14.7070   -25.9550   -11.8330 cd         1 DRN      -0.122200
     14 CAI        -14.1840   -25.6830   -10.5020 cd         1 DRN      -0.062200
     15 CAT        -12.8660   -25.0820   -10.1710 c          1 DRN       0.567200
     16 OAZ        -11.9280   -24.7860   -10.8950 o          1 DRN      -0.500000
     17 NAU        -12.9400   -24.8560    -8.8420 ns         1 DRN      -0.492500
     18 CAV        -14.0710   -25.2530    -8.2160 c          1 DRN       0.568200
     19 OAX        -14.2540   -25.2000    -7.0110 o          1 DRN      -0.483000
     20 CAJ        -14.8850   -25.8500    -9.3030 cc         1 DRN      -0.064200
     21 CAK        -16.0570   -26.6810    -9.0930 cc         1 DRN      -0.109200
     22 CAM        -17.0450   -26.6930    -8.0360 ca         1 DRN      -0.066800
     23 CAP        -17.2760   -25.8080    -6.9680 ca         1 DRN      -0.050000
     24 CAQ        -18.3730   -26.0550    -6.1180 ca         1 DRN      -0.136000
     25 CAR        -19.2290   -27.1520    -6.3560 ca         1 DRN      -0.094000
     26 CAS        -19.0010   -28.0030    -7.4560 ca         1 DRN      -0.126000
     27 CAN        -17.8950   -27.7430    -8.2860 ca         1 DRN      -0.055200
     28 NAO        -17.5010   -28.4180    -9.4330 na         1 DRN      -0.080700
     29 CAL        -16.3600   -27.7580    -9.9220 cd         1 DRN      -0.114100
     30 CA0        -18.2290   -29.5360   -10.0580 c3         1 DRN       0.079600
     31 SAT        -20.8360   -29.6180   -13.3720 ss         1 DRN      -0.433200
     32 NAB        -22.5980   -28.9430   -11.5510 nv         1 DRN      -1.040200
     33 HBC        -21.9460   -27.4670   -14.1920 hn         1 DRN       0.409400
     34 HAB1       -23.4610   -28.4490   -11.3630 hn         1 DRN       0.475000
     35 HAB2       -22.6780   -29.9490   -11.4980 hn         1 DRN       0.475000
     36 HBF1       -18.4430   -28.6200   -12.0050 hc         1 DRN       0.075700
     37 HBF2       -19.7840   -28.2960   -10.9060 hc         1 DRN       0.075700
     38 HBE1       -19.1910   -31.0030   -12.2300 h1         1 DRN       0.068700
     39 HBE2       -20.5720   -30.6740   -11.1650 h1         1 DRN       0.068700
     40 HA01       -18.8580   -30.0310    -9.3100 h1         1 DRN       0.059700
     41 HA02       -17.4930   -30.2710   -10.4080 h1         1 DRN       0.059700
     42 HAY1       -14.5410   -27.8280   -15.6060 h1         1 DRN       0.052700
     43 HAY2       -14.4500   -26.0940   -16.0470 h1         1 DRN       0.052700
     44 HAY3       -13.0280   -26.9140   -15.3360 h1         1 DRN       0.052700
     45 HAW        -12.7110   -26.2210   -12.8760 h4         1 DRN       0.226000
     46 HAF        -16.9470   -26.7810   -15.5590 ha         1 DRN       0.114000
     47 HAA        -19.2140   -26.3200   -14.6010 ha         1 DRN       0.110000
     48 HAB        -19.4430   -25.5710   -12.2310 ha         1 DRN       0.119000
     49 HAC        -17.4180   -25.3110   -10.7920 ha         1 DRN       0.131000
     50 HAU        -12.1750   -24.4390    -8.3340 hn         1 DRN       0.347500
     51 HAL        -15.8400   -28.1200   -10.8030 h4         1 DRN       0.221000
     52 HAP        -16.6580   -24.9320    -6.8060 ha         1 DRN       0.125000
     53 HAQ        -18.5700   -25.3870    -5.2830 ha         1 DRN       0.112000
     54 HAR        -20.0780   -27.3310    -5.7000 ha         1 DRN       0.109000
     55 HAS        -19.6760   -28.8320    -7.6510 ha         1 DRN       0.111000
     56 CAY        -14.1230   -26.8530   -15.3250 c3         1 DRN       0.061900
@<TRIPOS>BOND
     1     1     2 2   
     2     1    31 1   
     3     1    32 1   
     4     2    33 1   
     5     3     4 1   
     6     3    30 1   
     7     3    36 1   
     8     3    37 1   
     9     4    31 1   
    10     4    38 1   
    11     4    39 1   
    12     5     6 1   
    13     5     7 1   
    14     5    56 1   
    15     6    13 2   
    16     6    45 1   
    17     7     8 ar  
    18     7    12 ar  
    19     8     9 ar  
    20     8    46 1   
    21     9    10 ar  
    22     9    47 1   
    23    10    11 ar  
    24    10    48 1   
    25    11    12 ar  
    26    11    49 1   
    27    12    13 1   
    28    13    14 1   
    29    14    15 1   
    30    14    20 2   
    31    15    16 2   
    32    15    17 1   
    33    17    18 1   
    34    17    50 1   
    35    18    19 2   
    36    18    20 1   
    37    20    21 1   
    38    21    22 1   
    39    21    29 2   
    40    22    23 ar  
    41    22    27 ar  
    42    23    24 ar  
    43    23    52 1   
    44    24    25 ar  
    45    24    53 1   
    46    25    26 ar  
    47    25    54 1   
    48    26    27 ar  
    49    26    55 1   
    50    27    28 1   
    51    28    29 1   
    52    28    30 1   
    53    29    51 1   
    54    30    40 1   
    55    30    41 1   
    56    32    34 1   
    57    32    35 1   
    58    42    56 1   
    59    43    56 1   
    60    44    56 1   
@<TRIPOS>SUBSTRUCTURE
     1 DRN         1 TEMP              0 ****  ****    0 ROOT
