@<TRIPOS>MOLECULE
DRN
   56    60     1     0     0
SMALL
bcc


@<TRIPOS>ATOM
      1 CBD        -21.8260   -28.4060   -12.5680 c2         1 DRN       0.680100
      2 NBC        -22.0530   -27.3310   -13.2090 n2         1 DRN      -0.813100
      3 CBF        -19.0740   -29.1750   -11.0650 c3         1 DRN      -0.113400
      4 CBE        -19.8630   -30.2770   -11.7440 c3         1 DRN       0.033700
      5 NAH        -14.6360   -26.3680   -14.0600 na         1 DRN      -0.050400
      6 CAW        -13.9200   -26.1570   -12.9320 cc         1 DRN      -0.052100
      7 CAE        -15.9720   -26.2830   -13.7600 ca         1 DRN      -0.061200
      8 CAF        -17.0700   -26.4030   -14.6070 ca         1 DRN      -0.142000
      9 CAA        -18.3230   -26.2390   -14.0460 ca         1 DRN      -0.113000
     10 CAB        -18.4730   -25.9450   -12.6840 ca         1 DRN      -0.156000
     11 CAC        -17.3770   -25.8300   -11.8500 ca         1 DRN      -0.082000
     12 CAD        -16.0970   -26.0160   -12.3820 ca         1 DRN      -0.070800
     13 CAG        -14.7580   -25.9480   -11.8560 cd         1 DRN      -0.122200
     14 CAI        -14.3210   -25.7250   -10.5030 cd         1 DRN      -0.062200
     15 CAT        -13.0740   -24.9460   -10.2110 c          1 DRN       0.709700
     16 OAZ        -12.3110   -24.4490   -11.0020 o          1 DRN      -0.575500
     17 NAU        -12.9660   -24.8810    -8.8440 ns         1 DRN      -0.626500
     18 CAV        -14.0040   -25.5460    -8.2290 c          1 DRN       0.710700
     19 OAX        -14.1390   -25.6840    -7.0380 o          1 DRN      -0.558500
     20 CAJ        -14.8720   -26.0780    -9.3180 cc         1 DRN      -0.064200
     21 CAK        -16.0070   -26.9300    -9.0540 cc         1 DRN      -0.109200
     22 CAM        -17.0710   -26.7620    -8.1020 ca         1 DRN      -0.066800
     23 CAP        -17.3840   -25.7950    -7.1400 ca         1 DRN      -0.068000
     24 CAQ        -18.5530   -25.9260    -6.4170 ca         1 DRN      -0.154000
     25 CAR        -19.4240   -27.0060    -6.6310 ca         1 DRN      -0.112000
     26 CAS        -19.1450   -27.9700    -7.5800 ca         1 DRN      -0.144000
     27 CAN        -17.9660   -27.8330    -8.3090 ca         1 DRN      -0.055200
     28 NAO        -17.4600   -28.6220    -9.3110 na         1 DRN      -0.051400
     29 CAL        -16.3090   -28.0650    -9.7650 cd         1 DRN      -0.064100
     30 CA0        -18.1600   -29.7080    -9.9650 c3         1 DRN       0.050300
     31 SAT        -20.7580   -29.6840   -13.2130 ss         1 DRN      -0.385300
     32 NAB        -22.3840   -28.6630   -11.3590 nv         1 DRN      -0.929800
     33 HBC        -21.4610   -27.2560   -14.0260 hn         1 DRN       0.409400
     34 HAB1       -23.0840   -28.0060   -11.0480 hn         1 DRN       0.419800
     35 HAB2       -22.5650   -29.6170   -11.0980 hn         1 DRN       0.419800
     36 HBF1       -18.4760   -28.6380   -11.8030 hc         1 DRN       0.075700
     37 HBF2       -19.7650   -28.4490   -10.6320 hc         1 DRN       0.075700
     38 HBE1       -19.2010   -31.0490   -12.1440 h1         1 DRN       0.068700
     39 HBE2       -20.5480   -30.7740   -11.0560 h1         1 DRN       0.068700
     40 HA01       -18.7250   -30.2640    -9.2150 h1         1 DRN       0.059700
     41 HA02       -17.4180   -30.3920   -10.3760 h1         1 DRN       0.059700
     42 HAY1       -14.3920   -27.6320   -15.7130 h1         1 DRN       0.052700
     43 HAY2       -14.4400   -25.9010   -16.0900 h1         1 DRN       0.052700
     44 HAY3       -13.0110   -26.5990   -15.3220 h1         1 DRN       0.052700
     45 HAW        -12.8430   -26.1960   -12.9600 h4         1 DRN       0.176000
     46 HAF        -16.9540   -26.6100   -15.6630 ha         1 DRN       0.132000
     47 HAA        -19.1990   -26.3280   -14.6750 ha         1 DRN       0.128000
     48 HAB        -19.4690   -25.8180   -12.2810 ha         1 DRN       0.137000
     49 HAC        -17.5180   -25.6010   -10.8020 ha         1 DRN       0.149000
     50 HAU        -12.2130   -24.4210    -8.3530 hn         1 DRN       0.347500
     51 HAL        -15.7590   -28.5210   -10.5730 h4         1 DRN       0.171000
     52 HAP        -16.7270   -24.9540    -6.9670 ha         1 DRN       0.143000
     53 HAQ        -18.8060   -25.1820    -5.6720 ha         1 DRN       0.130000
     54 HAR        -20.3330   -27.0800    -6.0490 ha         1 DRN       0.127000
     55 HAS        -19.8280   -28.7930    -7.7480 ha         1 DRN       0.129000
     56 CAY        -14.0950   -26.6410   -15.3690 c3         1 DRN       0.032600
@<TRIPOS>BOND
     1     1     2 2   
     2     1    31 1   
     3     1    32 1   
     4     2    33 1   
     5     3     4 1   
     6     3    30 1   
     7     3    36 1   
     8     3    37 1   
     9     4    31 1   
    10     4    38 1   
    11     4    39 1   
    12     5     6 1   
    13     5     7 1   
    14     5    56 1   
    15     6    13 2   
    16     6    45 1   
    17     7     8 ar  
    18     7    12 ar  
    19     8     9 ar  
    20     8    46 1   
    21     9    10 ar  
    22     9    47 1   
    23    10    11 ar  
    24    10    48 1   
    25    11    12 ar  
    26    11    49 1   
    27    12    13 1   
    28    13    14 1   
    29    14    15 1   
    30    14    20 2   
    31    15    16 2   
    32    15    17 1   
    33    17    18 1   
    34    17    50 1   
    35    18    19 2   
    36    18    20 1   
    37    20    21 1   
    38    21    22 1   
    39    21    29 2   
    40    22    23 ar  
    41    22    27 ar  
    42    23    24 ar  
    43    23    52 1   
    44    24    25 ar  
    45    24    53 1   
    46    25    26 ar  
    47    25    54 1   
    48    26    27 ar  
    49    26    55 1   
    50    27    28 1   
    51    28    29 1   
    52    28    30 1   
    53    29    51 1   
    54    30    40 1   
    55    30    41 1   
    56    32    34 1   
    57    32    35 1   
    58    42    56 1   
    59    43    56 1   
    60    44    56 1   
@<TRIPOS>SUBSTRUCTURE
     1 DRN         1 TEMP              0 ****  ****    0 ROOT
