@<TRIPOS>MOLECULE
DRO
   72    77     1     0     0
SMALL
abcg2


@<TRIPOS>ATOM
      1 CBF         42.8670    26.9460   -10.9050 ca         1 DRO      -0.110750
      2 CBG         43.2360    28.1890   -10.4030 ca         1 DRO      -0.102000
      3 CBH         42.3180    28.9570    -9.6940 ca         1 DRO      -0.118500
      4 CBI         41.0260    28.4770    -9.4880 ca         1 DRO      -0.102000
      5 CBJ         40.6500    27.2430    -9.9990 ca         1 DRO      -0.110750
      6 CBE         41.5680    26.4880   -10.7190 ca         1 DRO      -0.032500
      7 NBB         41.1620    25.2210   -11.2530 n          1 DRO      -0.056000
      8 CBD         40.7010    24.2340   -10.3230 ca         1 DRO      -0.032500
      9 CBK         39.5620    23.4820   -10.5950 ca         1 DRO      -0.110750
     10 CBL         39.1070    22.5580    -9.6640 ca         1 DRO      -0.102000
     11 CBM         39.7790    22.3830    -8.4570 ca         1 DRO      -0.118500
     12 CBN         40.9150    23.1390    -8.1890 ca         1 DRO      -0.102000
     13 CBO         41.3800    24.0610    -9.1200 ca         1 DRO      -0.110750
     14 CBA         41.3170    24.9020   -12.5780 c          1 DRO       0.546600
     15 OBC         41.2460    23.7550   -13.0040 o          1 DRO      -0.550100
     16 CAH         41.5560    26.0250   -13.5220 cc         1 DRO       0.227500
     17 NAG         40.8500    27.1490   -13.4810 nd         1 DRO      -0.471800
     18 CAI         42.4620    26.0630   -14.6040 cc         1 DRO       0.026000
     19 CL1         43.6140    24.8670   -15.0580 cl         1 DRO      -0.142000
     20 CAJ         42.2830    27.2830   -15.2270 cd         1 DRO      -0.096300
     21 CAK         42.9410    27.8580   -16.4260 c3         1 DRO      -0.031800
     22 NAF         41.3000    27.9000   -14.5080 na         1 DRO       0.218000
     23 CAE         40.6820    29.1530   -14.7730 ca         1 DRO       0.044800
     24 CAA         41.4600    30.2990   -14.8710 ca         1 DRO      -0.111000
     25 CAB         40.8500    31.5220   -15.1210 ca         1 DRO      -0.091000
     26 CAC         39.4680    31.5980   -15.2510 ca         1 DRO      -0.107000
     27 CAY         38.6940    30.4490   -15.1300 ca         1 DRO      -0.083000
     28 CAD         39.2940    29.2140   -14.8990 ca         1 DRO      -0.116600
     29 CAL         38.4700    27.9560   -14.9140 c          1 DRO       0.624700
     30 OAN         38.6000    27.1780   -15.8630 o          1 DRO      -0.581100
     31 NAM         37.5910    27.7730   -13.9080 n          1 DRO      -0.397800
     32 CAQ         37.5390    28.6270   -12.7250 c6         1 DRO       0.153300
     33 CAR         37.3670    27.8520   -11.4390 ca         1 DRO      -0.093300
     34 CAW         37.3930    28.5560   -10.2350 ca         1 DRO      -0.110000
     35 CAV         37.2330    27.9000    -9.0240 ca         1 DRO      -0.116000
     36 CAU         37.0360    26.5200    -9.0100 ca         1 DRO      -0.106000
     37 CAT         36.9970    25.8200   -10.2070 ca         1 DRO      -0.106000
     38 CAS         37.1620    26.4720   -11.4310 ca         1 DRO      -0.061300
     39 CAP         37.1160    25.7050   -12.7270 c6         1 DRO      -0.048100
     40 CAO         36.7170    26.5930   -13.9040 c6         1 DRO       0.108700
     41 CAX         35.2450    27.0020   -13.8760 c3         1 DRO       0.139800
     42 NAZ         34.9130    27.8200   -15.0470 n8         1 DRO      -0.994200
     43 HBF         43.5790    26.3380   -11.4490 ha         1 DRO       0.127250
     44 HBG         44.2450    28.5500   -10.5580 ha         1 DRO       0.113500
     45 HBH         42.6070    29.9240    -9.3010 ha         1 DRO       0.112500
     46 HBI         40.3040    29.0690    -8.9400 ha         1 DRO       0.113500
     47 HBJ         39.6460    26.8700    -9.8600 ha         1 DRO       0.127250
     48 HBK         39.0310    23.6250   -11.5240 ha         1 DRO       0.127250
     49 HBO         42.2620    24.6510    -8.9110 ha         1 DRO       0.127250
     50 HBL         38.2150    21.9820    -9.8780 ha         1 DRO       0.113500
     51 HBM         39.4170    21.6670    -7.7310 ha         1 DRO       0.112500
     52 HBN         41.4460    23.0120    -7.2540 ha         1 DRO       0.113500
     53 HAK1        42.2220    28.3960   -17.0450 hc         1 DRO       0.060700
     54 HAK2        43.7360    28.5540   -16.1510 hc         1 DRO       0.060700
     55 HAK3        43.3820    27.0560   -17.0160 hc         1 DRO       0.060700
     56 HAA         42.5300    30.2330   -14.7360 ha         1 DRO       0.130000
     57 HAB         41.4560    32.4150   -15.2000 ha         1 DRO       0.123000
     58 HAC         38.9900    32.5500   -15.4410 ha         1 DRO       0.123000
     59 HAY         37.6170    30.5050   -15.2240 ha         1 DRO       0.125000
     60 HAQ1        38.4610    29.2000   -12.6680 h1         1 DRO       0.053700
     61 HAQ2        36.7220    29.3500   -12.8200 h1         1 DRO       0.053700
     62 HAO         36.9070    26.0710   -14.8370 h1         1 DRO       0.107700
     63 HAW         37.5520    29.6290   -10.2520 ha         1 DRO       0.110000
     64 HAV         37.2670    28.4570    -8.0970 ha         1 DRO       0.114000
     65 HAU         36.9120    25.9960    -8.0710 ha         1 DRO       0.117000
     66 HAT         36.8350    24.7490   -10.2010 ha         1 DRO       0.116000
     67 HAP1        38.1020    25.2820   -12.9400 hc         1 DRO       0.066700
     68 HAP2        36.4240    24.8660   -12.6410 hc         1 DRO       0.066700
     69 HAX1        34.6520    26.0860   -13.9150 h1         1 DRO       0.037200
     70 HAX2        35.0080    27.4940   -12.9250 h1         1 DRO       0.037200
     71 HAZ1        33.9230    28.0410   -15.0390 hn         1 DRO       0.392500
     72 HAZ2        35.3980    28.7110   -14.9920 hn         1 DRO       0.392500
@<TRIPOS>BOND
     1     1     2 ar  
     2     1     6 ar  
     3     1    43 1   
     4     2     3 ar  
     5     2    44 1   
     6     3     4 ar  
     7     3    45 1   
     8     4     5 ar  
     9     4    46 1   
    10     5     6 ar  
    11     5    47 1   
    12     6     7 1   
    13     7     8 1   
    14     7    14 1   
    15     8     9 ar  
    16     8    13 ar  
    17     9    10 ar  
    18     9    48 1   
    19    10    11 ar  
    20    10    50 1   
    21    11    12 ar  
    22    11    51 1   
    23    12    13 ar  
    24    12    52 1   
    25    13    49 1   
    26    14    15 2   
    27    14    16 1   
    28    16    17 2   
    29    16    18 1   
    30    17    22 1   
    31    18    19 1   
    32    18    20 2   
    33    20    21 1   
    34    20    22 1   
    35    21    53 1   
    36    21    54 1   
    37    21    55 1   
    38    22    23 1   
    39    23    24 ar  
    40    23    28 ar  
    41    24    25 ar  
    42    24    56 1   
    43    25    26 ar  
    44    25    57 1   
    45    26    27 ar  
    46    26    58 1   
    47    27    28 ar  
    48    27    59 1   
    49    28    29 1   
    50    29    30 2   
    51    29    31 1   
    52    31    32 1   
    53    31    40 1   
    54    32    33 1   
    55    32    60 1   
    56    32    61 1   
    57    33    34 ar  
    58    33    38 ar  
    59    34    35 ar  
    60    34    63 1   
    61    35    36 ar  
    62    35    64 1   
    63    36    37 ar  
    64    36    65 1   
    65    37    38 ar  
    66    37    66 1   
    67    38    39 1   
    68    39    40 1   
    69    39    67 1   
    70    39    68 1   
    71    40    41 1   
    72    40    62 1   
    73    41    42 1   
    74    41    69 1   
    75    41    70 1   
    76    42    71 1   
    77    42    72 1   
@<TRIPOS>SUBSTRUCTURE
     1 DRO         1 TEMP              0 ****  ****    0 ROOT
