@<TRIPOS>MOLECULE
DRO
   72    77     1     0     0
SMALL
No Charge or Current Charge


@<TRIPOS>ATOM
      1 CBF         43.0630    27.1620   -10.6940 ca         1 DRO      -0.110750
      2 CBG         43.3720    28.3840   -10.0720 ca         1 DRO      -0.102000
      3 CBH         42.4260    29.0160    -9.2500 ca         1 DRO      -0.118500
      4 CBI         41.1690    28.4250    -9.0500 ca         1 DRO      -0.102000
      5 CBJ         40.8610    27.2020    -9.6690 ca         1 DRO      -0.110750
      6 CBE         41.8030    26.5510   -10.4950 ca         1 DRO      -0.032500
      7 NBB         41.4800    25.3000   -11.1620 n          1 DRO      -0.056000
      8 CBD         40.6970    24.3270   -10.4130 ca         1 DRO      -0.032500
      9 CBK         39.8650    23.4050   -11.0930 ca         1 DRO      -0.110750
     10 CBL         39.0870    22.4750   -10.3830 ca         1 DRO      -0.102000
     11 CBM         39.1330    22.4420    -8.9810 ca         1 DRO      -0.118500
     12 CBN         39.9650    23.3360    -8.2900 ca         1 DRO      -0.102000
     13 CBO         40.7420    24.2680    -8.9990 ca         1 DRO      -0.110750
     14 CBA         41.9570    25.0040   -12.4760 c          1 DRO       0.546600
     15 OBC         42.3130    23.8620   -12.7670 o          1 DRO      -0.550100
     16 CAH         41.9280    26.1510   -13.4610 cc         1 DRO       0.227500
     17 NAG         41.3220    27.3160   -13.2490 nd         1 DRO      -0.471800
     18 CAI         42.4560    26.0590   -14.7860 cc         1 DRO       0.026000
     19 Cl1         43.2880    24.6970   -15.4890 cl         1 DRO      -0.142000
     20 CAJ         42.1710    27.2300   -15.4280 cd         1 DRO      -0.096300
     21 CAK         42.4390    27.6690   -16.8500 c3         1 DRO      -0.031800
     22 NAF         41.5170    27.9680   -14.4420 na         1 DRO       0.218000
     23 CAE         40.8410    29.1250   -14.8330 ca         1 DRO       0.044800
     24 CAA         41.5470    30.3370   -14.9700 ca         1 DRO      -0.111000
     25 CAB         40.8610    31.5270   -15.2650 ca         1 DRO      -0.091000
     26 CAC         39.4640    31.5150   -15.4070 ca         1 DRO      -0.107000
     27 CAY         38.7510    30.3130   -15.2610 ca         1 DRO      -0.083000
     28 CAD         39.4340    29.1100   -14.9830 ca         1 DRO      -0.116600
     29 CAL         38.6680    27.8160   -14.8510 c          1 DRO       0.624700
     30 OAN         38.9110    26.8710   -15.5920 o          1 DRO      -0.581100
     31 NAM         37.6060    27.7660   -13.9240 n          1 DRO      -0.397800
     32 CAQ         37.5830    28.6490   -12.7190 c6         1 DRO       0.153300
     33 CAR         37.4490    27.9030   -11.3790 ca         1 DRO      -0.093300
     34 CAW         37.4870    28.6360   -10.1770 ca         1 DRO      -0.110000
     35 CAV         37.3570    27.9820    -8.9400 ca         1 DRO      -0.116000
     36 CAU         37.1950    26.5870    -8.8960 ca         1 DRO      -0.106000
     37 CAT         37.1610    25.8480   -10.0890 ca         1 DRO      -0.106000
     38 CAS         37.2790    26.5010   -11.3310 ca         1 DRO      -0.061300
     39 CAP         37.2160    25.6960   -12.6260 c6         1 DRO      -0.048100
     40 CAO         36.7370    26.5570   -13.8180 c6         1 DRO       0.108700
     41 CAX         35.2120    26.8970   -13.7030 c3         1 DRO       0.139800
     42 NAZ         34.6700    27.6570   -14.8550 n8         1 DRO      -0.994200
     43 HBF         43.8140    26.6870   -11.3210 ha         1 DRO       0.127250
     44 HBG         44.3470    28.8420   -10.2300 ha         1 DRO       0.113500
     45 HBH         42.6650    29.9640    -8.7720 ha         1 DRO       0.112500
     46 HBI         40.4300    28.9160    -8.4220 ha         1 DRO       0.113500
     47 HBJ         39.8750    26.7730    -9.5240 ha         1 DRO       0.127250
     48 HBK         39.7950    23.4170   -12.1770 ha         1 DRO       0.127250
     49 HBO         41.3950    24.9300    -8.4360 ha         1 DRO       0.127250
     50 HBL         38.4450    21.7810   -10.9210 ha         1 DRO       0.113500
     51 HBM         38.5310    21.7210    -8.4320 ha         1 DRO       0.112500
     52 HBN         40.0110    23.3050    -7.2040 ha         1 DRO       0.113500
     53 HAK1        41.5050    27.9140   -17.3700 hc         1 DRO       0.060700
     54 HAK2        43.0810    28.5570   -16.8750 hc         1 DRO       0.060700
     55 HAK3        42.9400    26.8830   -17.4260 hc         1 DRO       0.060700
     56 HAA         42.6260    30.3570   -14.8330 ha         1 DRO       0.130000
     57 HAB         41.4100    32.4600   -15.3720 ha         1 DRO       0.123000
     58 HAC         38.9320    32.4380   -15.6290 ha         1 DRO       0.123000
     59 HAY         37.6690    30.3120   -15.3800 ha         1 DRO       0.125000
     60 HAQ1        38.5030    29.2460   -12.6670 h1         1 DRO       0.053700
     61 HAQ2        36.7480    29.3570   -12.8170 h1         1 DRO       0.053700
     62 HAO         36.8380    25.9490   -14.7280 h1         1 DRO       0.107700
     63 HAW         37.6160    29.7160   -10.2020 ha         1 DRO       0.110000
     64 HAV         37.3870    28.5550    -8.0160 ha         1 DRO       0.114000
     65 HAU         37.1010    26.0790    -7.9380 ha         1 DRO       0.117000
     66 HAT         37.0390    24.7680   -10.0490 ha         1 DRO       0.116000
     67 HAP1        38.2170    25.3020   -12.8480 hc         1 DRO       0.066700
     68 HAP2        36.5610    24.8220   -12.5070 hc         1 DRO       0.066700
     69 HAX1        34.6480    25.9580   -13.6150 h1         1 DRO       0.037200
     70 HAX2        35.0360    27.4790   -12.7880 h1         1 DRO       0.037200
     71 HAZ1        33.7000    27.9280   -14.6530 hn         1 DRO       0.392500
     72 HAZ2        35.1660    28.5530   -14.9200 hn         1 DRO       0.392500
@<TRIPOS>BOND
     1     1     2 ar  
     2     1     6 ar  
     3     1    43 1   
     4     2     3 ar  
     5     2    44 1   
     6     3     4 ar  
     7     3    45 1   
     8     4     5 ar  
     9     4    46 1   
    10     5     6 ar  
    11     5    47 1   
    12     6     7 1   
    13     7     8 1   
    14     7    14 1   
    15     8     9 ar  
    16     8    13 ar  
    17     9    10 ar  
    18     9    48 1   
    19    10    11 ar  
    20    10    50 1   
    21    11    12 ar  
    22    11    51 1   
    23    12    13 ar  
    24    12    52 1   
    25    13    49 1   
    26    14    15 2   
    27    14    16 1   
    28    16    17 2   
    29    16    18 1   
    30    17    22 1   
    31    18    19 1   
    32    18    20 2   
    33    20    21 1   
    34    20    22 1   
    35    21    53 1   
    36    21    54 1   
    37    21    55 1   
    38    22    23 1   
    39    23    24 ar  
    40    23    28 ar  
    41    24    25 ar  
    42    24    56 1   
    43    25    26 ar  
    44    25    57 1   
    45    26    27 ar  
    46    26    58 1   
    47    27    28 ar  
    48    27    59 1   
    49    28    29 1   
    50    29    30 2   
    51    29    31 1   
    52    31    32 1   
    53    31    40 1   
    54    32    33 1   
    55    32    60 1   
    56    32    61 1   
    57    33    34 ar  
    58    33    38 ar  
    59    34    35 ar  
    60    34    63 1   
    61    35    36 ar  
    62    35    64 1   
    63    36    37 ar  
    64    36    65 1   
    65    37    38 ar  
    66    37    66 1   
    67    38    39 1   
    68    39    40 1   
    69    39    67 1   
    70    39    68 1   
    71    40    41 1   
    72    40    62 1   
    73    41    42 1   
    74    41    69 1   
    75    41    70 1   
    76    42    71 1   
    77    42    72 1   
@<TRIPOS>SUBSTRUCTURE
     1 DRO         1 TEMP              0 ****  ****    0 ROOT
