@<TRIPOS>MOLECULE
DRQ
   54    57     1     0     0
SMALL
abcg2


@<TRIPOS>ATOM
      1 CAX         -4.9770     3.2410    -1.8650 c3         1 DRQ      -0.086100
      2 CAW         -3.9610     2.6970    -0.8630 c3         1 DRQ      -0.046200
      3 CAV         -4.6330     2.0270     0.2930 c2         1 DRQ      -0.212200
      4 CAU         -4.3770     0.8270     0.8230 ce         1 DRQ      -0.149200
      5 CAC         -3.2970    -0.0960     0.4440 ca         1 DRQ      -0.083800
      6 CAD         -1.9900     0.3350     0.2360 ca         1 DRQ      -0.068000
      7 CAT         -0.9390    -0.5190    -0.0960 ca         1 DRQ      -0.099300
      8 CAS          0.4590     0.0160    -0.3500 c6         1 DRQ      -0.004400
      9 CAR          0.8160     1.2550     0.4810 c6         1 DRQ      -0.069400
     10 CAQ          2.2230     1.7760     0.1750 c6         1 DRQ      -0.060400
     11 CAO          3.2720     0.6790     0.3230 c5         1 DRQ      -0.038000
     12 CAP          3.4310     0.2950     1.7980 c3         1 DRQ      -0.074100
     13 CAM          4.6420     0.9850    -0.2870 c5         1 DRQ       0.170300
     14 OAN          5.3860     1.8830     0.4980 oh         1 DRQ      -0.651000
     15 CAL          5.2870    -0.4090    -0.4630 c5         1 DRQ      -0.116400
     16 CAK          4.1100    -1.4070    -0.5590 c5         1 DRQ      -0.065400
     17 CAJ          2.8710    -0.5080    -0.5640 c5         1 DRQ      -0.065700
     18 CAI          1.5180    -1.0910    -0.2060 c6         1 DRQ      -0.045700
     19 CAH          1.1210    -2.2750    -1.0760 c6         1 DRQ      -0.069400
     20 CAG         -0.1630    -2.8980    -0.5540 c6         1 DRQ      -0.033100
     21 CAF         -1.2260    -1.8820    -0.2220 ca         1 DRQ      -0.030300
     22 CAE         -2.5250    -2.3360    -0.0040 ca         1 DRQ      -0.210000
     23 CAA         -3.5530    -1.4680     0.3270 ca         1 DRQ       0.145100
     24 OAB         -4.8190    -1.8890     0.5340 oh         1 DRQ      -0.531100
     25 HAX1        -4.4790     3.7780    -2.6720 hc         1 DRQ       0.032700
     26 HAX2        -5.5610     2.4350    -2.3100 hc         1 DRQ       0.032700
     27 HAX3        -5.6740     3.9320    -1.3880 hc         1 DRQ       0.032700
     28 HAW1        -3.2760     2.0120    -1.3660 hc         1 DRQ       0.045700
     29 HAW2        -3.3490     3.5280    -0.4950 hc         1 DRQ       0.045700
     30 HAV         -5.4560     2.5870     0.7300 ha         1 DRQ       0.165000
     31 HAU         -5.0310     0.4910     1.6220 ha         1 DRQ       0.182000
     32 HAD         -1.7960     1.3920     0.3670 ha         1 DRQ       0.116000
     33 HAS          0.4990     0.3310    -1.4050 hc         1 DRQ       0.050700
     34 HAR1         0.1070     2.0610     0.2800 hc         1 DRQ       0.043700
     35 HAR2         0.7120     1.0240     1.5460 hc         1 DRQ       0.043700
     36 HAQ1         2.2440     2.1520    -0.8550 hc         1 DRQ       0.044700
     37 HAQ2         2.4510     2.6270     0.8240 hc         1 DRQ       0.044700
     38 HAP1         2.4950    -0.0420     2.2410 hc         1 DRQ       0.037033
     39 HAP2         4.1600    -0.5020     1.9490 hc         1 DRQ       0.037033
     40 HAP3         3.7660     1.1550     2.3790 hc         1 DRQ       0.037033
     41 HAM          4.4670     1.4150    -1.2860 h1         1 DRQ       0.026700
     42 HOAN         6.2230     2.0490     0.0540 ho         1 DRQ       0.441000
     43 HAL1         5.9260    -0.4400    -1.3470 hc         1 DRQ       0.046200
     44 HAL2         5.9260    -0.6280     0.3950 hc         1 DRQ       0.046200
     45 HAK1         4.1660    -2.0350    -1.4490 hc         1 DRQ       0.044200
     46 HAK2         4.0960    -2.0810     0.3020 hc         1 DRQ       0.044200
     47 HAJ          2.7730    -0.1070    -1.5860 hc         1 DRQ       0.042700
     48 HAI          1.5350    -1.4360     0.8370 hc         1 DRQ       0.057700
     49 HAH1         0.9920    -1.9370    -2.1100 hc         1 DRQ       0.043200
     50 HAH2         1.9100    -3.0310    -1.0900 hc         1 DRQ       0.043200
     51 HAG1        -0.5610    -3.6230    -1.2690 hc         1 DRQ       0.048700
     52 HAG2         0.0620    -3.4710     0.3520 hc         1 DRQ       0.048700
     53 HAE         -2.7320    -3.3980    -0.1020 ha         1 DRQ       0.109000
     54 HOAB        -4.8670    -2.8490     0.4600 ho         1 DRQ       0.461000
@<TRIPOS>BOND
     1     1     2 1   
     2     1    25 1   
     3     1    26 1   
     4     1    27 1   
     5     2     3 1   
     6     2    28 1   
     7     2    29 1   
     8     3     4 2   
     9     3    30 1   
    10     4     5 1   
    11     4    31 1   
    12     5     6 ar  
    13     5    23 ar  
    14     6     7 ar  
    15     6    32 1   
    16     7     8 1   
    17     7    21 ar  
    18     8     9 1   
    19     8    18 1   
    20     8    33 1   
    21     9    10 1   
    22     9    34 1   
    23     9    35 1   
    24    10    11 1   
    25    10    36 1   
    26    10    37 1   
    27    11    12 1   
    28    11    13 1   
    29    11    17 1   
    30    12    38 1   
    31    12    39 1   
    32    12    40 1   
    33    13    14 1   
    34    13    15 1   
    35    13    41 1   
    36    14    42 1   
    37    15    16 1   
    38    15    43 1   
    39    15    44 1   
    40    16    17 1   
    41    16    45 1   
    42    16    46 1   
    43    17    18 1   
    44    17    47 1   
    45    18    19 1   
    46    18    48 1   
    47    19    20 1   
    48    19    49 1   
    49    19    50 1   
    50    20    21 1   
    51    20    51 1   
    52    20    52 1   
    53    21    22 ar  
    54    22    23 ar  
    55    22    53 1   
    56    23    24 1   
    57    24    54 1   
@<TRIPOS>SUBSTRUCTURE
     1 DRQ         1 TEMP              0 ****  ****    0 ROOT
