@<TRIPOS>MOLECULE
DRQ
   54    57     1     0     0
SMALL
No Charge or Current Charge


@<TRIPOS>ATOM
      1 CAX         -4.9530     3.4940    -1.8040 c3         1 DRQ      -0.086100
      2 CAW         -4.0340     2.5980    -0.9530 c3         1 DRQ      -0.046200
      3 CAV         -4.7590     1.9600     0.2190 c2         1 DRQ      -0.212200
      4 CAU         -4.4820     0.7760     0.8160 ce         1 DRQ      -0.149200
      5 CAC         -3.3720    -0.1590     0.4580 ca         1 DRQ      -0.083800
      6 CAD         -2.0670     0.3300     0.2480 ca         1 DRQ      -0.068000
      7 CAT         -0.9970    -0.5360    -0.0770 ca         1 DRQ      -0.099300
      8 CAS          0.4270     0.0220    -0.3420 c6         1 DRQ      -0.004400
      9 CAR          0.8090     1.2850     0.5070 c6         1 DRQ      -0.069400
     10 CAQ          2.2440     1.8100     0.1950 c6         1 DRQ      -0.060400
     11 CAO          3.3190     0.6950     0.3430 c5         1 DRQ      -0.038000
     12 CAP          3.4810     0.3630     1.8720 c3         1 DRQ      -0.074100
     13 CAM          4.6820     1.0090    -0.3610 c5         1 DRQ       0.170300
     14 OAN          5.4910     1.9430     0.3530 oh         1 DRQ      -0.651000
     15 CAL          5.3540    -0.4040    -0.4560 c5         1 DRQ      -0.116400
     16 CAK          4.1610    -1.4240    -0.4770 c5         1 DRQ      -0.065400
     17 CAJ          2.9110    -0.5030    -0.5670 c5         1 DRQ      -0.065700
     18 CAI          1.5190    -1.0920    -0.2050 c6         1 DRQ      -0.045700
     19 CAH          1.1360    -2.2970    -1.0910 c6         1 DRQ      -0.069400
     20 CAG         -0.1720    -2.9350    -0.5810 c6         1 DRQ      -0.033100
     21 CAF         -1.2640    -1.9230    -0.2130 ca         1 DRQ      -0.030300
     22 CAE         -2.5620    -2.4130     0.0200 ca         1 DRQ      -0.210000
     23 CAA         -3.6070    -1.5440     0.3600 ca         1 DRQ       0.145100
     24 OAB         -4.8550    -2.0570     0.5760 oh         1 DRQ      -0.531100
     25 HAX1        -4.3960     3.9210    -2.6470 hc         1 DRQ       0.032700
     26 HAX2        -5.7930     2.9140    -2.2070 hc         1 DRQ       0.032700
     27 HAX3        -5.3550     4.3190    -1.2050 hc         1 DRQ       0.032700
     28 HAW1        -3.6090     1.8250    -1.6050 hc         1 DRQ       0.045700
     29 HAW2        -3.1940     3.2020    -0.5890 hc         1 DRQ       0.045700
     30 HAV         -5.6100     2.5420     0.5800 ha         1 DRQ       0.165000
     31 HAU         -5.1250     0.4200     1.6230 ha         1 DRQ       0.182000
     32 HAD         -1.9000     1.3950     0.3470 ha         1 DRQ       0.116000
     33 HAS          0.4270     0.3480    -1.3920 hc         1 DRQ       0.050700
     34 HAR1         0.1170     2.1090     0.2980 hc         1 DRQ       0.043700
     35 HAR2         0.7020     1.0640     1.5770 hc         1 DRQ       0.043700
     36 HAQ1         2.2610     2.2010    -0.8320 hc         1 DRQ       0.044700
     37 HAQ2         2.4850     2.6620     0.8450 hc         1 DRQ       0.044700
     38 HAP1         2.5630    -0.0340     2.3170 hc         1 DRQ       0.037033
     39 HAP2         4.2690    -0.3710     2.0700 hc         1 DRQ       0.037033
     40 HAP3         3.7450     1.2630     2.4400 hc         1 DRQ       0.037033
     41 HAM          4.4960     1.3930    -1.3750 h1         1 DRQ       0.026700
     42 HOAN         6.3320     2.0240    -0.1470 ho         1 DRQ       0.441000
     43 HAL1         5.9710    -0.4840    -1.3580 hc         1 DRQ       0.046200
     44 HAL2         6.0150    -0.6020     0.3950 hc         1 DRQ       0.046200
     45 HAK1         4.2260    -2.1090    -1.3310 hc         1 DRQ       0.044200
     46 HAK2         4.1470    -2.0460     0.4250 hc         1 DRQ       0.044200
     47 HAJ          2.7980    -0.1700    -1.6080 hc         1 DRQ       0.042700
     48 HAI          1.5430    -1.4390     0.8370 hc         1 DRQ       0.057700
     49 HAH1         1.0110    -1.9730    -2.1340 hc         1 DRQ       0.043200
     50 HAH2         1.9310    -3.0540    -1.0890 hc         1 DRQ       0.043200
     51 HAG1        -0.5500    -3.6360    -1.3370 hc         1 DRQ       0.048700
     52 HAG2         0.0520    -3.5420     0.3080 hc         1 DRQ       0.048700
     53 HAE         -2.7530    -3.4800    -0.0670 ha         1 DRQ       0.109000
     54 HOAB        -4.8130    -3.0280     0.4490 ho         1 DRQ       0.461000
@<TRIPOS>BOND
     1     1     2 1   
     2     1    25 1   
     3     1    26 1   
     4     1    27 1   
     5     2     3 1   
     6     2    28 1   
     7     2    29 1   
     8     3     4 2   
     9     3    30 1   
    10     4     5 1   
    11     4    31 1   
    12     5     6 ar  
    13     5    23 ar  
    14     6     7 ar  
    15     6    32 1   
    16     7     8 1   
    17     7    21 ar  
    18     8     9 1   
    19     8    18 1   
    20     8    33 1   
    21     9    10 1   
    22     9    34 1   
    23     9    35 1   
    24    10    11 1   
    25    10    36 1   
    26    10    37 1   
    27    11    12 1   
    28    11    13 1   
    29    11    17 1   
    30    12    38 1   
    31    12    39 1   
    32    12    40 1   
    33    13    14 1   
    34    13    15 1   
    35    13    41 1   
    36    14    42 1   
    37    15    16 1   
    38    15    43 1   
    39    15    44 1   
    40    16    17 1   
    41    16    45 1   
    42    16    46 1   
    43    17    18 1   
    44    17    47 1   
    45    18    19 1   
    46    18    48 1   
    47    19    20 1   
    48    19    49 1   
    49    19    50 1   
    50    20    21 1   
    51    20    51 1   
    52    20    52 1   
    53    21    22 ar  
    54    22    23 ar  
    55    22    53 1   
    56    23    24 1   
    57    24    54 1   
@<TRIPOS>SUBSTRUCTURE
     1 DRQ         1 TEMP              0 ****  ****    0 ROOT
