@<TRIPOS>MOLECULE
DRR
  100   103     1     0     0
SMALL
bcc


@<TRIPOS>ATOM
      1 CBR          0.5680     2.8860    -2.9140 c3         1 DRR      -0.086100
      2 CBQ         -0.1120     2.2860    -1.6920 c3         1 DRR      -0.075400
      3 CBO         -1.6210     2.5380    -1.6490 c3         1 DRR      -0.063700
      4 CBP         -1.9200     4.0140    -1.3910 c3         1 DRR      -0.094100
      5 CBN         -2.3020     1.6830    -0.5640 c3         1 DRR       0.058700
      6 NBM         -2.0640     0.2530    -0.6490 ns         1 DRR      -0.557900
      7 CBK         -2.0690    -0.5470    -1.7270 c          1 DRR       0.687100
      8 OBL         -2.3210    -0.2030    -2.8680 o          1 DRR      -0.572100
      9 CBS         -3.8030     1.9930    -0.5200 c          1 DRR       0.646100
     10 OBT         -4.5220     1.8020    -1.4860 o          1 DRR      -0.571100
     11 NBU         -4.2340     2.5280     0.6330 ns         1 DRR      -0.583900
     12 CBV         -5.5750     3.0470     0.8230 c3         1 DRR       0.112000
     13 CBW         -6.6450     1.9670     0.9350 c3         1 DRR      -0.135400
     14 CBJ         -6.4660     1.0720     2.1600 c3         1 DRR       0.142400
     15 OBI         -6.8760    -0.2790     1.9240 os         1 DRR      -0.336900
     16 CBH         -5.9830    -0.9760     1.1620 ca         1 DRR       0.104100
     17 CBG         -4.8310    -1.5010     1.7400 ca         1 DRR      -0.142500
     18 CBF         -3.8970    -2.1540     0.9530 ca         1 DRR      -0.107000
     19 CBE         -6.2080    -1.1510    -0.1960 ca         1 DRR      -0.142500
     20 CBD         -5.2520    -1.7820    -0.9770 ca         1 DRR      -0.107000
     21 CBC         -4.0730    -2.2710    -0.4260 ca         1 DRR      -0.100300
     22 CBB         -3.0210    -2.8590    -1.3260 c3         1 DRR      -0.035100
     23 CBA         -1.7360    -2.0210    -1.4530 c3         1 DRR       0.014700
     24 NAZ         -0.8810    -2.2280    -0.2960 ns         1 DRR      -0.565900
     25 CAX          0.4260    -1.8850    -0.3410 c          1 DRR       0.631100
     26 OAY          0.8840    -1.1660    -1.2100 o          1 DRR      -0.590100
     27 CAN          1.2990    -2.4900     0.7690 c3         1 DRR       0.024700
     28 CAO          0.9330    -1.9850     2.1840 c3         1 DRR      -0.025100
     29 CAP          1.4030    -0.5780     2.4190 ca         1 DRR      -0.113300
     30 CAR          0.6950     0.5140     1.9270 ca         1 DRR      -0.109500
     31 CAT          1.2450     1.7840     1.9290 ca         1 DRR      -0.151500
     32 CAQ          2.6380    -0.3410     3.0200 ca         1 DRR      -0.109500
     33 CAS          3.2050     0.9260     3.0210 ca         1 DRR      -0.151500
     34 CAU          2.5310     1.9790     2.4170 ca         1 DRR       0.117100
     35 OAV          3.1300     3.1870     2.2260 os         1 DRR      -0.337900
     36 CAW          4.1840     3.1530     1.2540 c3         1 DRR       0.140400
     37 CAC          3.8120     2.3940    -0.0100 c3         1 DRR      -0.121400
     38 CAB          4.8750     2.4910    -1.0970 c3         1 DRR      -0.064400
     39 CAA          4.6250     1.4950    -2.2420 c3         1 DRR      -0.160400
     40 CAD          5.1520     0.1120    -1.9180 c          1 DRR       0.664100
     41 OAE          6.3160    -0.1860    -2.1350 o          1 DRR      -0.600100
     42 N            4.2730    -0.7400    -1.3390 ns         1 DRR      -0.578900
     43 CA           4.5690    -2.1440    -1.0740 c3         1 DRR       0.041700
     44 CB           5.7530    -2.3790    -0.1060 c3         1 DRR      -0.067700
     45 CG1          5.7020    -1.5770     1.1870 c3         1 DRR      -0.089600
     46 CG2          5.9100    -3.8700     0.1780 c3         1 DRR      -0.089600
     47 C            3.2830    -2.8160    -0.5950 c          1 DRR       0.660100
     48 O            2.8440    -3.8160    -1.1310 o          1 DRR      -0.584100
     49 NAM          2.6790    -2.2310     0.4660 ns         1 DRR      -0.547900
     50 HBR          0.1450     2.4810    -3.8360 hc         1 DRR       0.032700
     51 HBRA         0.4770     3.9720    -2.9550 hc         1 DRR       0.032700
     52 HBRB         1.6340     2.6560    -2.9150 hc         1 DRR       0.032700
     53 HBQ          0.0910     1.2160    -1.6750 hc         1 DRR       0.043200
     54 HBQA         0.3480     2.6910    -0.7830 hc         1 DRR       0.043200
     55 HBO         -2.0470     2.2640    -2.6160 hc         1 DRR       0.099700
     56 HBP         -1.5790     4.3210    -0.3990 hc         1 DRR       0.036033
     57 HBPA        -1.4130     4.6450    -2.1200 hc         1 DRR       0.036033
     58 HBPB        -2.9820     4.2480    -1.4670 hc         1 DRR       0.036033
     59 HBN         -1.8530     1.9790     0.3920 h1         1 DRR       0.036700
     60 HNBM        -1.9260    -0.2100     0.2330 hn         1 DRR       0.314500
     61 HNBU        -3.5760     2.6460     1.3840 hn         1 DRR       0.309500
     62 HBV         -5.5520     3.6590     1.7250 h1         1 DRR       0.047700
     63 HBVA        -5.8240     3.7160    -0.0030 h1         1 DRR       0.047700
     64 HBW         -7.6240     2.4500     0.9590 hc         1 DRR       0.069700
     65 HBWA        -6.6180     1.3740     0.0210 hc         1 DRR       0.069700
     66 HBJ         -5.4240     1.0800     2.4970 h1         1 DRR       0.045700
     67 HBJA        -7.0750     1.4280     2.9910 h1         1 DRR       0.045700
     68 HBG         -4.6640    -1.3970     2.8050 ha         1 DRR       0.143500
     69 HBF         -3.0200    -2.5680     1.4340 ha         1 DRR       0.130500
     70 HBE         -7.1170    -0.7750    -0.6470 ha         1 DRR       0.143500
     71 HBD         -5.4220    -1.8770    -2.0430 ha         1 DRR       0.130500
     72 HBB         -2.7370    -3.8640    -1.0020 hc         1 DRR       0.064700
     73 HBBA        -3.4330    -2.9730    -2.3290 hc         1 DRR       0.064700
     74 HBA         -1.2120    -2.3690    -2.3480 h1         1 DRR       0.090700
     75 HNAZ        -1.1220    -2.9970     0.3110 hn         1 DRR       0.310500
     76 HAN          1.1310    -3.5700     0.7600 h1         1 DRR       0.089700
     77 HAO         -0.1470    -2.0710     2.3190 hc         1 DRR       0.061200
     78 HAOA         1.3940    -2.6610     2.9040 hc         1 DRR       0.061200
     79 HAR         -0.2840     0.3660     1.4930 ha         1 DRR       0.132500
     80 HAT          0.7060     2.6180     1.4960 ha         1 DRR       0.147000
     81 HAQ          3.1840    -1.1650     3.4630 ha         1 DRR       0.132500
     82 HAS          4.1890     1.0770     3.4470 ha         1 DRR       0.147000
     83 HAW          4.4040     4.1970     1.0280 h1         1 DRR       0.052700
     84 HAWA         5.0890     2.7180     1.6950 h1         1 DRR       0.052700
     85 HAC          3.6480     1.3410     0.2330 hc         1 DRR       0.053200
     86 HACA         2.8610     2.7720    -0.4010 hc         1 DRR       0.053200
     87 HAB          4.8850     3.5020    -1.5110 hc         1 DRR       0.052200
     88 HABA         5.8730     2.3240    -0.6810 hc         1 DRR       0.052200
     89 HAA          3.5600     1.4710    -2.4870 hc         1 DRR       0.068200
     90 HAAA         5.1480     1.8320    -3.1370 hc         1 DRR       0.068200
     91 HN           3.2960    -0.4850    -1.3880 hn         1 DRR       0.330500
     92 HA           4.8280    -2.6440    -2.0130 h1         1 DRR       0.082700
     93 HB           6.6380    -2.0570    -0.6530 hc         1 DRR       0.082700
     94 HG1          4.9510    -1.9570     1.8810 hc         1 DRR       0.036700
     95 HG1A         6.6630    -1.6430     1.6970 hc         1 DRR       0.036700
     96 HG1B         5.5030    -0.5180     1.0140 hc         1 DRR       0.036700
     97 HG2          5.9210    -4.4580    -0.7410 hc         1 DRR       0.036700
     98 HG2A         6.8520    -4.0550     0.6960 hc         1 DRR       0.036700
     99 HG2B         5.1100    -4.2550     0.8140 hc         1 DRR       0.036700
    100 HNAM         3.0490    -1.3450     0.7800 hn         1 DRR       0.328500
@<TRIPOS>BOND
     1     1     2 1   
     2     1    50 1   
     3     1    51 1   
     4     1    52 1   
     5     2     3 1   
     6     2    53 1   
     7     2    54 1   
     8     3     4 1   
     9     3     5 1   
    10     3    55 1   
    11     4    56 1   
    12     4    57 1   
    13     4    58 1   
    14     5     6 1   
    15     5     9 1   
    16     5    59 1   
    17     6     7 1   
    18     6    60 1   
    19     7     8 2   
    20     7    23 1   
    21     9    10 2   
    22     9    11 1   
    23    11    12 1   
    24    11    61 1   
    25    12    13 1   
    26    12    62 1   
    27    12    63 1   
    28    13    14 1   
    29    13    64 1   
    30    13    65 1   
    31    14    15 1   
    32    14    66 1   
    33    14    67 1   
    34    15    16 1   
    35    16    17 ar  
    36    16    19 ar  
    37    17    18 ar  
    38    17    68 1   
    39    18    21 ar  
    40    18    69 1   
    41    19    20 ar  
    42    19    70 1   
    43    20    21 ar  
    44    20    71 1   
    45    21    22 1   
    46    22    23 1   
    47    22    72 1   
    48    22    73 1   
    49    23    24 1   
    50    23    74 1   
    51    24    25 1   
    52    24    75 1   
    53    25    26 2   
    54    25    27 1   
    55    27    28 1   
    56    27    49 1   
    57    27    76 1   
    58    28    29 1   
    59    28    77 1   
    60    28    78 1   
    61    29    30 ar  
    62    29    32 ar  
    63    30    31 ar  
    64    30    79 1   
    65    31    34 ar  
    66    31    80 1   
    67    32    33 ar  
    68    32    81 1   
    69    33    34 ar  
    70    33    82 1   
    71    34    35 1   
    72    35    36 1   
    73    36    37 1   
    74    36    83 1   
    75    36    84 1   
    76    37    38 1   
    77    37    85 1   
    78    37    86 1   
    79    38    39 1   
    80    38    87 1   
    81    38    88 1   
    82    39    40 1   
    83    39    89 1   
    84    39    90 1   
    85    40    41 2   
    86    40    42 1   
    87    42    43 1   
    88    42    91 1   
    89    43    44 1   
    90    43    47 1   
    91    43    92 1   
    92    44    45 1   
    93    44    46 1   
    94    44    93 1   
    95    45    94 1   
    96    45    95 1   
    97    45    96 1   
    98    46    97 1   
    99    46    98 1   
   100    46    99 1   
   101    47    48 2   
   102    47    49 1   
   103    49   100 1   
@<TRIPOS>SUBSTRUCTURE
     1 DRR         1 TEMP              0 ****  ****    0 ROOT
