@<TRIPOS>MOLECULE
DRR
  100   103     1     0     0
SMALL
No Charge or Current Charge


@<TRIPOS>ATOM
      1 CBR          0.6210     2.8600    -2.9390 c3         1 DRR      -0.086100
      2 CBQ         -0.1530     2.1190    -1.8280 c3         1 DRR      -0.075400
      3 CBO         -1.6600     2.4990    -1.6980 c3         1 DRR      -0.063700
      4 CBP         -1.8440     4.0180    -1.4310 c3         1 DRR      -0.094100
      5 CBN         -2.3970     1.6440    -0.6110 c3         1 DRR       0.058700
      6 NBM         -2.1760     0.1790    -0.7200 ns         1 DRR      -0.490900
      7 CBK         -2.3920    -0.6380    -1.8170 c          1 DRR       0.620100
      8 OBL         -2.7790    -0.2140    -2.8970 o          1 DRR      -0.572100
      9 CBS         -3.9230     1.9710    -0.5140 c          1 DRR       0.579100
     10 OBT         -4.7330     1.6730    -1.3820 o          1 DRR      -0.571100
     11 NBU         -4.2930     2.6790     0.6180 ns         1 DRR      -0.516900
     12 CBV         -5.6370     3.2030     0.8930 c3         1 DRR       0.112000
     13 CBW         -6.7010     2.1100     1.1260 c3         1 DRR      -0.135400
     14 CBJ         -6.4570     1.2290     2.3770 c3         1 DRR       0.165600
     15 OBI         -6.8800    -0.1140     2.0730 os         1 DRR      -0.360100
     16 CBH         -6.0590    -0.9040     1.3050 ca         1 DRR       0.104100
     17 CBG         -4.7850    -1.2650     1.7720 ca         1 DRR      -0.124500
     18 CBF         -3.9140    -1.9930     0.9450 ca         1 DRR      -0.089000
     19 CBE         -6.4790    -1.3040     0.0280 ca         1 DRR      -0.124500
     20 CBD         -5.5970    -2.0040    -0.8120 ca         1 DRR      -0.089000
     21 CBC         -4.2990    -2.3330    -0.3700 ca         1 DRR      -0.100300
     22 CBB         -3.3150    -2.9900    -1.3400 c3         1 DRR      -0.035100
     23 CBA         -2.0380    -2.1440    -1.5950 c3         1 DRR       0.014700
     24 NAZ         -1.0250    -2.3590    -0.5260 ns         1 DRR      -0.498900
     25 CAX          0.3130    -2.0410    -0.6640 c          1 DRR       0.564100
     26 OAY          0.7120    -1.4220    -1.6420 o          1 DRR      -0.590100
     27 CAN          1.2630    -2.5380     0.4690 c3         1 DRR       0.024700
     28 CAO          0.8510    -2.0700     1.9000 c3         1 DRR      -0.025100
     29 CAP          1.3080    -0.6460     2.1980 ca         1 DRR      -0.113300
     30 CAR          0.5130     0.4500     1.8160 ca         1 DRR      -0.091500
     31 CAT          1.0240     1.7550     1.8990 ca         1 DRR      -0.133500
     32 CAQ          2.5740    -0.4180     2.7700 ca         1 DRR      -0.091500
     33 CAS          3.0960     0.8830     2.8320 ca         1 DRR      -0.133500
     34 CAU          2.3350     1.9630     2.3490 ca         1 DRR       0.117100
     35 OAV          2.9130     3.1930     2.1350 os         1 DRR      -0.361100
     36 CAW          4.1400     3.2760     1.3710 c3         1 DRR       0.163600
     37 CAC          3.9490     2.4800     0.0500 c3         1 DRR      -0.121400
     38 CAB          5.0970     2.6130    -0.9730 c3         1 DRR      -0.064400
     39 CAA          4.9650     1.5900    -2.1340 c3         1 DRR      -0.160400
     40 CAD          5.5320     0.2130    -1.7580 c          1 DRR       0.597100
     41 OAE          6.7240    -0.0320    -1.8560 o          1 DRR      -0.600100
     42 N            4.6010    -0.7240    -1.3420 ns         1 DRR      -0.511900
     43 CA           4.8700    -2.1580    -1.0090 c3         1 DRR       0.041700
     44 CB           6.0110    -2.3820     0.0420 c3         1 DRR      -0.067700
     45 CG1          5.7710    -1.6440     1.3800 c3         1 DRR      -0.089600
     46 CG2          6.3050    -3.8820     0.2880 c3         1 DRR      -0.089600
     47 C            3.5510    -2.8880    -0.5940 c          1 DRR       0.593100
     48 O            3.2710    -4.0140    -0.9840 o          1 DRR      -0.584100
     49 NAM          2.6580    -2.1410     0.1490 ns         1 DRR      -0.480900
     50 HBR          0.1020     2.7730    -3.9010 hc         1 DRR       0.032700
     51 HBRA         0.7430     3.9230    -2.6990 hc         1 DRR       0.032700
     52 HBRB         1.6230     2.4290    -3.0520 hc         1 DRR       0.032700
     53 HBQ         -0.0700     1.0490    -2.0410 hc         1 DRR       0.043200
     54 HBQA         0.3540     2.2860    -0.8720 hc         1 DRR       0.043200
     55 HBO         -2.1370     2.2890    -2.6640 hc         1 DRR       0.099700
     56 HBP         -1.3610     4.3100    -0.4900 hc         1 DRR       0.036033
     57 HBPA        -1.4140     4.6200    -2.2390 hc         1 DRR       0.036033
     58 HBPB        -2.9050     4.2890    -1.3700 hc         1 DRR       0.036033
     59 HBN         -1.9610     1.9330     0.3540 h1         1 DRR       0.036700
     60 HNBM        -1.8560    -0.3110     0.1040 hn         1 DRR       0.314500
     61 HNBU        -3.5550     2.8970     1.2770 hn         1 DRR       0.309500
     62 HBV         -5.5840     3.8520     1.7780 h1         1 DRR       0.047700
     63 HBVA        -5.9440     3.8270     0.0430 h1         1 DRR       0.047700
     64 HBW         -7.6800     2.5920     1.2330 hc         1 DRR       0.069700
     65 HBWA        -6.7730     1.4910     0.2260 hc         1 DRR       0.069700
     66 HBJ         -5.3960     1.2450     2.6590 h1         1 DRR       0.045700
     67 HBJA        -7.0310     1.6340     3.2210 h1         1 DRR       0.045700
     68 HBG         -4.4660    -0.9740     2.7700 ha         1 DRR       0.125500
     69 HBF         -2.9320    -2.2590     1.3240 ha         1 DRR       0.112500
     70 HBE         -7.4670    -1.0260    -0.3290 ha         1 DRR       0.125500
     71 HBD         -5.9160    -2.2630    -1.8200 ha         1 DRR       0.112500
     72 HBB         -3.0320    -3.9880    -0.9830 hc         1 DRR       0.064700
     73 HBBA        -3.8050    -3.1530    -2.3080 hc         1 DRR       0.064700
     74 HBA         -1.5920    -2.4910    -2.5360 h1         1 DRR       0.090700
     75 HNAZ        -1.2780    -2.9270     0.2750 hn         1 DRR       0.310500
     76 HAN          1.1920    -3.6340     0.4510 h1         1 DRR       0.089700
     77 HAO         -0.2310    -2.1720     2.0460 hc         1 DRR       0.061200
     78 HAOA         1.3090    -2.7540     2.6260 hc         1 DRR       0.061200
     79 HAR         -0.4760     0.2870     1.4030 ha         1 DRR       0.114500
     80 HAT          0.4390     2.5940     1.5330 ha         1 DRR       0.129000
     81 HAQ          3.1810    -1.2560     3.1050 ha         1 DRR       0.114500
     82 HAS          4.1080     1.0420     3.1950 ha         1 DRR       0.129000
     83 HAW          4.3700     4.3240     1.1430 h1         1 DRR       0.052700
     84 HAWA         4.9850     2.8580     1.9350 h1         1 DRR       0.052700
     85 HAC          3.8360     1.4180     0.2890 hc         1 DRR       0.053200
     86 HACA         3.0140     2.8000    -0.4280 hc         1 DRR       0.053200
     87 HAB          5.0840     3.6310    -1.3830 hc         1 DRR       0.052200
     88 HABA         6.0660     2.4840    -0.4740 hc         1 DRR       0.052200
     89 HAA          3.9040     1.5030    -2.3970 hc         1 DRR       0.068200
     90 HAAA         5.5330     1.9720    -2.9900 hc         1 DRR       0.068200
     91 HN           3.6340    -0.4200    -1.3850 hn         1 DRR       0.330500
     92 HA           5.1870    -2.6420    -1.9420 h1         1 DRR       0.082700
     93 HB           6.9370    -1.9760    -0.3790 hc         1 DRR       0.082700
     94 HG1          4.9320    -2.0920     1.9220 hc         1 DRR       0.036700
     95 HG1A         6.6580    -1.7140     2.0200 hc         1 DRR       0.036700
     96 HG1B         5.5580    -0.5800     1.2190 hc         1 DRR       0.036700
     97 HG2          6.4860    -4.4030    -0.6600 hc         1 DRR       0.036700
     98 HG2A         7.1980    -4.0010     0.9130 hc         1 DRR       0.036700
     99 HG2B         5.4690    -4.3750     0.7990 hc         1 DRR       0.036700
    100 HNAM         2.9720    -1.2270     0.4530 hn         1 DRR       0.328500
@<TRIPOS>BOND
     1     1     2 1   
     2     1    50 1   
     3     1    51 1   
     4     1    52 1   
     5     2     3 1   
     6     2    53 1   
     7     2    54 1   
     8     3     4 1   
     9     3     5 1   
    10     3    55 1   
    11     4    56 1   
    12     4    57 1   
    13     4    58 1   
    14     5     6 1   
    15     5     9 1   
    16     5    59 1   
    17     6     7 1   
    18     6    60 1   
    19     7     8 2   
    20     7    23 1   
    21     9    10 2   
    22     9    11 1   
    23    11    12 1   
    24    11    61 1   
    25    12    13 1   
    26    12    62 1   
    27    12    63 1   
    28    13    14 1   
    29    13    64 1   
    30    13    65 1   
    31    14    15 1   
    32    14    66 1   
    33    14    67 1   
    34    15    16 1   
    35    16    17 ar  
    36    16    19 ar  
    37    17    18 ar  
    38    17    68 1   
    39    18    21 ar  
    40    18    69 1   
    41    19    20 ar  
    42    19    70 1   
    43    20    21 ar  
    44    20    71 1   
    45    21    22 1   
    46    22    23 1   
    47    22    72 1   
    48    22    73 1   
    49    23    24 1   
    50    23    74 1   
    51    24    25 1   
    52    24    75 1   
    53    25    26 2   
    54    25    27 1   
    55    27    28 1   
    56    27    49 1   
    57    27    76 1   
    58    28    29 1   
    59    28    77 1   
    60    28    78 1   
    61    29    30 ar  
    62    29    32 ar  
    63    30    31 ar  
    64    30    79 1   
    65    31    34 ar  
    66    31    80 1   
    67    32    33 ar  
    68    32    81 1   
    69    33    34 ar  
    70    33    82 1   
    71    34    35 1   
    72    35    36 1   
    73    36    37 1   
    74    36    83 1   
    75    36    84 1   
    76    37    38 1   
    77    37    85 1   
    78    37    86 1   
    79    38    39 1   
    80    38    87 1   
    81    38    88 1   
    82    39    40 1   
    83    39    89 1   
    84    39    90 1   
    85    40    41 2   
    86    40    42 1   
    87    42    43 1   
    88    42    91 1   
    89    43    44 1   
    90    43    47 1   
    91    43    92 1   
    92    44    45 1   
    93    44    46 1   
    94    44    93 1   
    95    45    94 1   
    96    45    95 1   
    97    45    96 1   
    98    46    97 1   
    99    46    98 1   
   100    46    99 1   
   101    47    48 2   
   102    47    49 1   
   103    49   100 1   
@<TRIPOS>SUBSTRUCTURE
     1 DRR         1 TEMP              0 ****  ****    0 ROOT
