@<TRIPOS>MOLECULE
DRS
   51    52     1     0     0
SMALL
No Charge or Current Charge


@<TRIPOS>ATOM
      1 CAA         -2.4420     3.3210     0.0590 c3         1 DRS      -0.093100
      2 CAX         -0.9350     3.3150    -0.2980 c3         1 DRS      -0.069700
      3 CAB         -0.2320     4.5290     0.3620 c3         1 DRS      -0.093100
      4 CAZ         -0.2310     1.9560     0.0340 c3         1 DRS       0.026700
      5 CAU         -0.9190     0.7360    -0.6580 c          1 DRS       0.589100
      6 OAE         -0.5610     0.3070    -1.7510 o          1 DRS      -0.650100
      7 N           -1.9600     0.1630     0.0520 ns         1 DRS      -0.439900
      8 CA          -2.7390    -1.0330    -0.3660 c3         1 DRS      -0.041300
      9 C           -4.2610    -0.7970    -0.1430 c          1 DRS       0.717000
     10 O           -4.6330    -0.3780     0.9460 o          1 DRS      -0.720000
     11 OXT         -5.0150    -0.9590    -1.0920 o          1 DRS      -0.720000
     12 CB          -2.2600    -2.3250     0.3470 c3         1 DRS      -0.036100
     13 CG          -0.7620    -2.5590     0.1960 ca         1 DRS      -0.073300
     14 CD2          0.1230    -2.1240     1.1990 ca         1 DRS      -0.086000
     15 CE2          1.5100    -2.2400     1.0180 ca         1 DRS      -0.154000
     16 CD1         -0.2490    -3.1620    -0.9690 ca         1 DRS      -0.086000
     17 CE1          1.1400    -3.2830    -1.1490 ca         1 DRS      -0.154000
     18 CZ           2.0240    -2.7930    -0.1740 ca         1 DRS       0.094100
     19 OH           3.3760    -2.7920    -0.4570 os         1 DRS      -0.362100
     20 CAM          4.2490    -1.7520     0.0390 c3         1 DRS       0.169600
     21 CAK          3.7680    -0.3930    -0.5340 c3         1 DRS      -0.125400
     22 CAL          4.4000     0.8410     0.1490 c3         1 DRS      -0.063400
     23 CAN          3.6510     2.1590    -0.1750 c3         1 DRS      -0.157400
     24 CAS          2.2620     2.2040     0.4840 c          1 DRS       0.600100
     25 OAC          2.1120     2.4240     1.6770 o          1 DRS      -0.627100
     26 NAP          1.1980     1.9950    -0.3680 ns         1 DRS      -0.485900
     27 HAA         -2.8830     4.3060    -0.1370 hc         1 DRS       0.038867
     28 HAAA        -2.9990     2.5950    -0.5460 hc         1 DRS       0.038867
     29 HAAB        -2.5960     3.0840     1.1190 hc         1 DRS       0.038867
     30 HAX         -0.8670     3.4600    -1.3840 hc         1 DRS       0.055700
     31 HAB         -0.2060     4.4180     1.4530 hc         1 DRS       0.038867
     32 HABA         0.7970     4.6400     0.0000 hc         1 DRS       0.038867
     33 HABB        -0.7620     5.4600     0.1260 hc         1 DRS       0.038867
     34 HAZ         -0.2890     1.7820     1.1160 h1         1 DRS       0.081700
     35 HN          -2.2070     0.6000     0.9320 hn         1 DRS       0.307500
     36 HA          -2.6000    -1.1730    -1.4460 h1         1 DRS       0.072700
     37 HB          -2.5240    -2.2670     1.4100 hc         1 DRS       0.058700
     38 HBA         -2.8170    -3.1810    -0.0560 hc         1 DRS       0.058700
     39 HD2         -0.2620    -1.6610     2.1050 ha         1 DRS       0.113500
     40 HE2          2.1710    -1.8670     1.7950 ha         1 DRS       0.111500
     41 HD1         -0.9250    -3.5020    -1.7500 ha         1 DRS       0.113500
     42 HE1          1.5320    -3.7090    -2.0690 ha         1 DRS       0.111500
     43 HAM          4.2420    -1.7270     1.1360 h1         1 DRS       0.040200
     44 HAMA         5.2830    -1.9340    -0.2800 h1         1 DRS       0.040200
     45 HAK          3.9800    -0.3620    -1.6100 hc         1 DRS       0.062700
     46 HAKA         2.6810    -0.3200    -0.4360 hc         1 DRS       0.062700
     47 HAL          4.4100     0.6970     1.2370 hc         1 DRS       0.043700
     48 HALA         5.4470     0.9280    -0.1670 hc         1 DRS       0.043700
     49 HAN          4.2470     2.9930     0.2150 hc         1 DRS       0.053700
     50 HANA         3.5600     2.2490    -1.2650 hc         1 DRS       0.053700
     51 HNAP         1.4230     1.7910    -1.3350 hn         1 DRS       0.326500
@<TRIPOS>BOND
     1     1     2 1   
     2     1    27 1   
     3     1    28 1   
     4     1    29 1   
     5     2     3 1   
     6     2     4 1   
     7     2    30 1   
     8     3    31 1   
     9     3    32 1   
    10     3    33 1   
    11     4     5 1   
    12     4    26 1   
    13     4    34 1   
    14     5     6 2   
    15     5     7 1   
    16     7     8 1   
    17     7    35 1   
    18     8     9 1   
    19     8    12 1   
    20     8    36 1   
    21     9    10 1   
    22     9    11 1   
    23    12    13 1   
    24    12    37 1   
    25    12    38 1   
    26    13    14 ar  
    27    13    16 ar  
    28    14    15 ar  
    29    14    39 1   
    30    15    18 ar  
    31    15    40 1   
    32    16    17 ar  
    33    16    41 1   
    34    17    18 ar  
    35    17    42 1   
    36    18    19 1   
    37    19    20 1   
    38    20    21 1   
    39    20    43 1   
    40    20    44 1   
    41    21    22 1   
    42    21    45 1   
    43    21    46 1   
    44    22    23 1   
    45    22    47 1   
    46    22    48 1   
    47    23    24 1   
    48    23    49 1   
    49    23    50 1   
    50    24    25 2   
    51    24    26 1   
    52    26    51 1   
@<TRIPOS>SUBSTRUCTURE
     1 DRS         1 TEMP              0 ****  ****    0 ROOT
