@<TRIPOS>MOLECULE
DRS
   51    52     1     0     0
SMALL
abcg2


@<TRIPOS>ATOM
      1 CAA         -2.4270     3.3500     0.2270 c3         1 DRS      -0.093100
      2 CAX         -0.9770     3.3690    -0.2490 c3         1 DRS      -0.069700
      3 CAB         -0.2300     4.5310     0.3940 c3         1 DRS      -0.093100
      4 CAZ         -0.2750     2.0280     0.0440 c3         1 DRS       0.026700
      5 CAU         -0.9760     0.8830    -0.6910 c          1 DRS       0.589100
      6 OAE         -0.8040     0.7390    -1.8960 o          1 DRS      -0.650100
      7 N           -1.7650     0.1080     0.0570 ns         1 DRS      -0.439900
      8 CA          -2.5560    -0.9930    -0.4390 c3         1 DRS      -0.041300
      9 C           -4.0810    -0.7160    -0.3820 c          1 DRS       0.717000
     10 O           -4.4540     0.4100    -0.0100 o          1 DRS      -0.720000
     11 OXT         -4.8010    -1.6710    -0.7330 o          1 DRS      -0.720000
     12 CB          -2.1960    -2.2910     0.3100 c3         1 DRS      -0.036100
     13 CG          -0.7280    -2.5830     0.2230 ca         1 DRS      -0.073300
     14 CD2          0.1510    -2.1380     1.2040 ca         1 DRS      -0.086000
     15 CE2          1.5250    -2.2550     1.0580 ca         1 DRS      -0.154000
     16 CD1         -0.1830    -3.2080    -0.8960 ca         1 DRS      -0.086000
     17 CE1          1.1880    -3.3240    -1.0640 ca         1 DRS      -0.154000
     18 CZ           2.0530    -2.8160    -0.1010 ca         1 DRS       0.094100
     19 OH           3.3870    -2.8710    -0.3570 os         1 DRS      -0.362100
     20 CAM          4.1610    -1.7470     0.0580 c3         1 DRS       0.169600
     21 CAK          3.6540    -0.4420    -0.5380 c3         1 DRS      -0.125400
     22 CAL          4.2980     0.7890     0.0880 c3         1 DRS      -0.063400
     23 CAN          3.5230     2.0650    -0.2450 c3         1 DRS      -0.157400
     24 CAS          2.1670     2.0700     0.4380 c          1 DRS       0.600100
     25 OAC          2.0730     2.0800     1.6580 o          1 DRS      -0.627100
     26 NAP          1.1050     2.0450    -0.3860 ns         1 DRS      -0.485900
     27 HAA         -2.9160     4.2920    -0.0260 hc         1 DRS       0.038867
     28 HAAA        -3.0140     2.5420    -0.2090 hc         1 DRS       0.038867
     29 HAAB        -2.4760     3.2370     1.3130 hc         1 DRS       0.038867
     30 HAX         -0.9700     3.5110    -1.3350 hc         1 DRS       0.055700
     31 HAB         -0.1930     4.4210     1.4800 hc         1 DRS       0.038867
     32 HABA         0.7930     4.6210     0.0290 hc         1 DRS       0.038867
     33 HABB        -0.7370     5.4710     0.1740 hc         1 DRS       0.038867
     34 HAZ         -0.2830     1.8570     1.1230 h1         1 DRS       0.081700
     35 HN          -1.8890     0.3590     1.0240 hn         1 DRS       0.307500
     36 HA          -2.2860    -1.1290    -1.4890 h1         1 DRS       0.072700
     37 HB          -2.5020    -2.2010     1.3570 hc         1 DRS       0.058700
     38 HBA         -2.7800    -3.1020    -0.1230 hc         1 DRS       0.058700
     39 HD2         -0.2380    -1.6630     2.0970 ha         1 DRS       0.113500
     40 HE2          2.1690    -1.8630     1.8350 ha         1 DRS       0.111500
     41 HD1         -0.8390    -3.5830    -1.6740 ha         1 DRS       0.113500
     42 HE1          1.5920    -3.7760    -1.9620 ha         1 DRS       0.111500
     43 HAM          4.1880    -1.6770     1.1520 h1         1 DRS       0.040200
     44 HAMA         5.1790    -1.9600    -0.2700 h1         1 DRS       0.040200
     45 HAK          3.8070    -0.4400    -1.6210 hc         1 DRS       0.062700
     46 HAKA         2.5730    -0.3840    -0.3860 hc         1 DRS       0.062700
     47 HAL          4.3430     0.6770     1.1750 hc         1 DRS       0.043700
     48 HALA         5.3310     0.8980    -0.2510 hc         1 DRS       0.043700
     49 HAN          4.0750     2.9360     0.1150 hc         1 DRS       0.053700
     50 HANA         3.4280     2.1730    -1.3280 hc         1 DRS       0.053700
     51 HNAP         1.2650     2.0300    -1.3810 hn         1 DRS       0.326500
@<TRIPOS>BOND
     1     1     2 1   
     2     1    27 1   
     3     1    28 1   
     4     1    29 1   
     5     2     3 1   
     6     2     4 1   
     7     2    30 1   
     8     3    31 1   
     9     3    32 1   
    10     3    33 1   
    11     4     5 1   
    12     4    26 1   
    13     4    34 1   
    14     5     6 2   
    15     5     7 1   
    16     7     8 1   
    17     7    35 1   
    18     8     9 1   
    19     8    12 1   
    20     8    36 1   
    21     9    10 1   
    22     9    11 1   
    23    12    13 1   
    24    12    37 1   
    25    12    38 1   
    26    13    14 ar  
    27    13    16 ar  
    28    14    15 ar  
    29    14    39 1   
    30    15    18 ar  
    31    15    40 1   
    32    16    17 ar  
    33    16    41 1   
    34    17    18 ar  
    35    17    42 1   
    36    18    19 1   
    37    19    20 1   
    38    20    21 1   
    39    20    43 1   
    40    20    44 1   
    41    21    22 1   
    42    21    45 1   
    43    21    46 1   
    44    22    23 1   
    45    22    47 1   
    46    22    48 1   
    47    23    24 1   
    48    23    49 1   
    49    23    50 1   
    50    24    25 2   
    51    24    26 1   
    52    26    51 1   
@<TRIPOS>SUBSTRUCTURE
     1 DRS         1 TEMP              0 ****  ****    0 ROOT
