@<TRIPOS>MOLECULE
DRV
   44    46     1     0     0
SMALL
No Charge or Current Charge


@<TRIPOS>ATOM
      1 C4           3.8490    -0.1370     0.3200 ca         1 DRV       0.143500
      2 C5           4.5460    -1.1610    -0.2710 ca         1 DRV      -0.100600
      3 C6           5.6070    -1.7450     0.4500 ca         1 DRV       0.452900
      4 C8           3.0470    -0.5930    -1.7080 cc         1 DRV       0.413700
      5 N1           5.9290    -1.3180     1.6810 nb         1 DRV      -0.303000
      6 N3           4.1480     0.3200     1.5520 nb         1 DRV      -0.220000
      7 N           -6.1670    -1.4800    -2.5100 n8         1 DRV      -0.980200
      8 CA          -6.0050    -0.7180    -1.2190 c3         1 DRV       0.074800
      9 C           -4.7990    -1.0940    -0.2910 c          1 DRV       0.623100
     10 O           -4.1600    -2.1290    -0.4230 o          1 DRV      -0.496100
     11 NAO         -4.5280    -0.1750     0.6730 ns         1 DRV      -0.639300
     12 SBA         -3.3500    -0.2470     1.8390 s6         1 DRV       1.440500
     13 OAD         -3.4790     0.9570     2.6660 o          1 DRV      -0.536000
     14 OAE         -3.3550    -1.5860     2.4370 o          1 DRV      -0.536000
     15 O5          -2.0350    -0.1050     0.8660 os         1 DRV      -0.543700
     16 C9          -1.6610     1.2270     0.4680 c3         1 DRV       0.201600
     17 C7          -0.4290     1.1290    -0.4650 c5         1 DRV       0.166300
     18 O4           0.7640     0.8010     0.2910 os         1 DRV      -0.430000
     19 C3          -0.0350     2.4560    -1.1730 c5         1 DRV       0.097300
     20 O3          -0.9430     2.8520    -2.2140 oh         1 DRV      -0.705000
     21 C2           1.3510     2.0040    -1.7140 c5         1 DRV       0.093300
     22 O2           2.1530     3.0980    -2.1950 oh         1 DRV      -0.689000
     23 C1           1.9190     1.3080    -0.4230 c5         1 DRV       0.312300
     24 N9           2.8960     0.2300    -0.5860 na         1 DRV      -0.287300
     25 N7           4.0590    -1.4680    -1.5450 nd         1 DRV      -0.550100
     26 C10          5.1800    -0.3010     2.1730 ca         1 DRV       0.184900
     27 N6           6.3560    -2.7660    -0.0450 nv         1 DRV      -1.064900
     28 H8           2.4110    -0.5200    -2.5820 h5         1 DRV       0.069800
     29 HN          -6.2910    -2.4800    -2.3030 hn         1 DRV       0.408500
     30 HNA         -7.0520    -1.2130    -2.9610 hn         1 DRV       0.408500
     31 HA          -5.9120     0.3500    -1.4610 h1         1 DRV       0.048700
     32 HAA         -6.9180    -0.8390    -0.6210 h1         1 DRV       0.048700
     33 HNAO        -5.0770     0.6620     0.7510 hn         1 DRV       0.342500
     34 H5          -2.4790     1.7140    -0.0800 h1         1 DRV       0.060700
     35 H5'A        -1.4030     1.8530     1.3340 h1         1 DRV       0.060700
     36 H4          -0.6140     0.3360    -1.2040 h1         1 DRV       0.092700
     37 H3           0.0740     3.2610    -0.4310 h1         1 DRV       0.059700
     38 HO3         -0.7750     3.8060    -2.4060 ho         1 DRV       0.518000
     39 H2           1.2080     1.2670    -2.5160 h1         1 DRV       0.062700
     40 HO2          1.8260     3.3290    -3.0970 ho         1 DRV       0.515000
     41 H1           2.4110     2.0670     0.2000 h2         1 DRV       0.116700
     42 H6           5.4330     0.0540     3.1700 h5         1 DRV       0.046100
     43 HN6          5.9890    -3.2420    -0.8660 hn         1 DRV       0.507500
     44 HN6A         6.8870    -3.3340     0.6100 hn         1 DRV       0.507500
@<TRIPOS>BOND
     1     1     2 ar  
     2     1     6 ar  
     3     1    24 1   
     4     2     3 ar  
     5     2    25 1   
     6     3     5 ar  
     7     3    27 1   
     8     4    24 1   
     9     4    25 2   
    10     4    28 1   
    11     5    26 ar  
    12     6    26 ar  
    13     7     8 1   
    14     7    29 1   
    15     7    30 1   
    16     8     9 1   
    17     8    31 1   
    18     8    32 1   
    19     9    10 2   
    20     9    11 1   
    21    11    12 1   
    22    11    33 1   
    23    12    13 2   
    24    12    14 2   
    25    12    15 1   
    26    15    16 1   
    27    16    17 1   
    28    16    34 1   
    29    16    35 1   
    30    17    18 1   
    31    17    19 1   
    32    17    36 1   
    33    18    23 1   
    34    19    20 1   
    35    19    21 1   
    36    19    37 1   
    37    20    38 1   
    38    21    22 1   
    39    21    23 1   
    40    21    39 1   
    41    22    40 1   
    42    23    24 1   
    43    23    41 1   
    44    26    42 1   
    45    27    43 1   
    46    27    44 1   
@<TRIPOS>SUBSTRUCTURE
     1 DRV         1 TEMP              0 ****  ****    0 ROOT
