@<TRIPOS>MOLECULE
DRV
   44    46     1     0     0
SMALL
abcg2


@<TRIPOS>ATOM
      1 C4           3.9370    -0.0970     0.2770 ca         1 DRV       0.143500
      2 C5           4.5780    -1.2090    -0.2450 ca         1 DRV      -0.100600
      3 C6           5.8480    -1.5040     0.2860 ca         1 DRV       0.452900
      4 C8           2.7310    -1.0850    -1.2590 cc         1 DRV       0.413700
      5 N1           6.3300    -0.6970     1.2380 nb         1 DRV      -0.303000
      6 N3           4.4020     0.7130     1.2240 nb         1 DRV      -0.220000
      7 N           -6.1970    -1.2930    -2.5010 n8         1 DRV      -0.980200
      8 CA          -6.0200    -0.4100    -1.3780 c3         1 DRV       0.074800
      9 C           -4.8500    -0.8420    -0.5220 c          1 DRV       0.623100
     10 O           -4.1420    -1.7900    -0.7380 o          1 DRV      -0.496100
     11 NAO         -4.6570    -0.0190     0.5770 ns         1 DRV      -0.639300
     12 SBA         -3.5170    -0.2980     1.7490 s6         1 DRV       1.440500
     13 OAD         -3.6530     0.8000     2.6730 o          1 DRV      -0.536000
     14 OAE         -3.5680    -1.6610     2.1990 o          1 DRV      -0.536000
     15 O5          -2.1500    -0.1930     0.9560 os         1 DRV      -0.543700
     16 C9          -1.7260     1.0970     0.4700 c3         1 DRV       0.201600
     17 C7          -0.5940     0.8610    -0.4940 c5         1 DRV       0.166300
     18 O4           0.5170     0.2830     0.1790 os         1 DRV      -0.430000
     19 C3          -0.0790     2.1600    -1.1080 c5         1 DRV       0.097300
     20 O3          -0.8600     2.5070    -2.2130 oh         1 DRV      -0.705000
     21 C2           1.3660     1.7760    -1.4130 c5         1 DRV       0.093300
     22 O2           2.2760     2.8270    -1.5310 oh         1 DRV      -0.689000
     23 C1           1.7060     0.9420    -0.1820 c5         1 DRV       0.312300
     24 N9           2.7460    -0.0270    -0.3900 na         1 DRV      -0.287300
     25 N7           3.8040    -1.8140    -1.2030 nd         1 DRV      -0.550100
     26 C10          5.5980     0.3380     1.6430 ca         1 DRV       0.184900
     27 N6           6.5760    -2.5430    -0.1220 nv         1 DRV      -1.064900
     28 H8           1.8900    -1.2740    -1.9110 h5         1 DRV       0.069800
     29 HN          -6.6310    -2.1560    -2.2030 hn         1 DRV       0.408500
     30 HNA         -6.8350    -0.8670    -3.1580 hn         1 DRV       0.408500
     31 HA          -5.8030     0.5980    -1.7430 h1         1 DRV       0.048700
     32 HAA         -6.8930    -0.3050    -0.7190 h1         1 DRV       0.048700
     33 HNAO        -5.2720     0.7700     0.7390 hn         1 DRV       0.342500
     34 H5          -2.5430     1.5980    -0.0570 h1         1 DRV       0.060700
     35 H5'A        -1.4060     1.7180     1.3090 h1         1 DRV       0.060700
     36 H4          -0.9290     0.1910    -1.2970 h1         1 DRV       0.092700
     37 H3          -0.0760     2.9580    -0.3490 h1         1 DRV       0.059700
     38 HO3         -0.7290     3.4400    -2.4080 ho         1 DRV       0.518000
     39 H2           1.3660     1.1370    -2.3080 h1         1 DRV       0.062700
     40 HO2          2.2380     3.1730    -2.4270 ho         1 DRV       0.515000
     41 H1           2.0540     1.5950     0.6250 h2         1 DRV       0.116700
     42 H6           6.0470     0.9490     2.4180 h5         1 DRV       0.046100
     43 HN6          6.2280    -3.1820    -0.8140 hn         1 DRV       0.507500
     44 HN6A         7.4700    -2.7330     0.2970 hn         1 DRV       0.507500
@<TRIPOS>BOND
     1     1     2 ar  
     2     1     6 ar  
     3     1    24 1   
     4     2     3 ar  
     5     2    25 1   
     6     3     5 ar  
     7     3    27 1   
     8     4    24 1   
     9     4    25 2   
    10     4    28 1   
    11     5    26 ar  
    12     6    26 ar  
    13     7     8 1   
    14     7    29 1   
    15     7    30 1   
    16     8     9 1   
    17     8    31 1   
    18     8    32 1   
    19     9    10 2   
    20     9    11 1   
    21    11    12 1   
    22    11    33 1   
    23    12    13 2   
    24    12    14 2   
    25    12    15 1   
    26    15    16 1   
    27    16    17 1   
    28    16    34 1   
    29    16    35 1   
    30    17    18 1   
    31    17    19 1   
    32    17    36 1   
    33    18    23 1   
    34    19    20 1   
    35    19    21 1   
    36    19    37 1   
    37    20    38 1   
    38    21    22 1   
    39    21    23 1   
    40    21    39 1   
    41    22    40 1   
    42    23    24 1   
    43    23    41 1   
    44    26    42 1   
    45    27    43 1   
    46    27    44 1   
@<TRIPOS>SUBSTRUCTURE
     1 DRV         1 TEMP              0 ****  ****    0 ROOT
