@<TRIPOS>MOLECULE
DRW
   52    53     1     0     0
SMALL
bcc


@<TRIPOS>ATOM
      1 CAA         -5.2380    -1.5900     2.7030 c3         1 DRW      -0.127100
      2 CAB         -3.5200    -1.5160    -2.2650 c3         1 DRW      -0.085100
      3 NAC          6.5580    -2.4240     0.1050 n8         1 DRW      -0.919700
      4 OAD         -7.0390    -0.8440    -1.2990 o          1 DRW      -0.569100
      5 OAE         -2.2910     3.3120    -0.2270 o          1 DRW      -0.801300
      6 OAF          7.0360    -0.6400     1.7490 o          1 DRW      -0.615300
      7 OAG          7.7310    -0.3750    -0.6620 o          1 DRW      -0.615300
      8 OAH         -1.3850     2.4570    -2.0860 o          1 DRW      -0.801300
      9 OAI         -6.0590     0.4900     1.7400 oh         1 DRW      -0.561800
     10 CAJ         -6.0010    -0.4020    -0.8700 c          1 DRW       0.600900
     11 CAK          1.4130     1.0110    -1.1630 c5         1 DRW       0.144800
     12 CAM          1.7920     0.5340     1.1910 c5         1 DRW      -0.100400
     13 NAN         -3.5280     0.7760     0.0260 n2         1 DRW      -0.535900
     14 NAO          2.7050     0.3600    -1.0180 n7         1 DRW      -0.785200
     15 SAQ         -0.4130    -0.6610     0.1610 ss         1 DRW      -0.426200
     16 CAS         -2.4630     0.9910    -0.6300 ce         1 DRW       0.329300
     17 CAT         -5.9130    -0.8980     1.5290 c3         1 DRW       0.163100
     18 CAU         -2.8310    -1.3100    -0.9200 c5         1 DRW      -0.082700
     19 CAV          3.0790     0.6590     0.3590 c5         1 DRW       0.132500
     20 CAW          0.6640     0.8040     0.1700 c5         1 DRW       0.025400
     21 CAX         -5.1780    -1.0960     0.1900 c3         1 DRW      -0.151700
     22 CAY         -3.7120    -0.6630     0.1750 c5         1 DRW       0.095500
     23 CAZ         -1.7250    -0.2550    -1.0480 c5         1 DRW      -0.025900
     24 SBA          6.7700    -0.8050     0.3330 s6         1 DRW       1.384800
     25 HAA         -5.8810    -1.5410     3.5840 hc         1 DRW       0.038367
     26 HAAA        -5.0620    -2.6450     2.4870 hc         1 DRW       0.038367
     27 HAAB        -4.2860    -1.1290     2.9630 hc         1 DRW       0.038367
     28 HAB         -3.8940    -0.5830    -2.6920 hc         1 DRW       0.035033
     29 HABA        -2.8140    -1.9370    -2.9820 hc         1 DRW       0.035033
     30 HABB        -4.3530    -2.2150    -2.1920 hc         1 DRW       0.035033
     31 HNAC         5.9280    -2.8520     0.7730 hn         1 DRW       0.412800
     32 HNAA         6.3040    -2.6690    -0.8450 hn         1 DRW       0.412800
     33 HOAI        -6.6150     0.6170     2.5150 ho         1 DRW       0.388000
     34 HAJ         -5.6200     0.5730    -1.2180 h4         1 DRW       0.036200
     35 HAK          1.5650     2.0820    -1.3220 h1         1 DRW       0.085200
     36 HAKA         0.8760     0.6290    -2.0290 h1         1 DRW       0.085200
     37 HAL          3.8920    -1.2720     0.8180 h1         1 DRW       0.045200
     38 HALA         4.4430     0.0280     1.8800 h1         1 DRW       0.045200
     39 HAM          1.7160    -0.4680     1.6260 hc         1 DRW       0.054700
     40 HAMA         1.7660     1.2430     2.0180 hc         1 DRW       0.054700
     41 HNAO         2.5630    -0.6430    -1.1040 hn         1 DRW       0.331800
     42 HNAP         5.1710     0.0470    -0.9770 hn         1 DRW       0.439800
     43 HAT         -6.8990    -1.3670     1.3950 h1         1 DRW       0.020700
     44 HAU         -2.4490    -2.2760    -0.5780 hc         1 DRW       0.051700
     45 HAV          3.4180     1.7000     0.3890 h1         1 DRW       0.087700
     46 HAW          0.0820     1.6790     0.4560 h1         1 DRW       0.121700
     47 HAX         -5.2210    -2.1730    -0.0050 hc         1 DRW       0.054700
     48 HAY         -3.2720    -0.9370     1.1410 h1         1 DRW       0.065700
     49 HAZ         -1.2940    -0.1920    -2.0470 h1         1 DRW       0.099700
     50 CAR         -2.0010     2.3900    -1.0060 c          1 DRW       0.844300
     51 CAL          4.2110    -0.2210     0.8450 c3         1 DRW       0.198800
     52 NAP          5.3860     0.0270     0.0160 n7         1 DRW      -0.828100
@<TRIPOS>BOND
     1     1    17 1   
     2     1    25 1   
     3     1    26 1   
     4     1    27 1   
     5     2    18 1   
     6     2    28 1   
     7     2    29 1   
     8     2    30 1   
     9     3    24 1   
    10     3    31 1   
    11     3    32 1   
    12     4    10 2   
    13     5    50 1   
    14     6    24 2   
    15     7    24 2   
    16     8    50 1   
    17     9    17 1   
    18     9    33 1   
    19    10    21 1   
    20    10    34 1   
    21    11    14 1   
    22    11    20 1   
    23    11    35 1   
    24    11    36 1   
    25    12    19 1   
    26    12    20 1   
    27    12    39 1   
    28    12    40 1   
    29    13    16 2   
    30    13    22 1   
    31    14    19 1   
    32    14    41 1   
    33    15    20 1   
    34    15    23 1   
    35    16    23 1   
    36    16    50 1   
    37    17    21 1   
    38    17    43 1   
    39    18    22 1   
    40    18    23 1   
    41    18    44 1   
    42    19    45 1   
    43    19    51 1   
    44    20    46 1   
    45    21    22 1   
    46    21    47 1   
    47    22    48 1   
    48    23    49 1   
    49    24    52 1   
    50    37    51 1   
    51    38    51 1   
    52    42    52 1   
    53    51    52 1   
@<TRIPOS>SUBSTRUCTURE
     1 DRW         1 TEMP              0 ****  ****    0 ROOT
