@<TRIPOS>MOLECULE
DRW
   52    53     1     0     0
SMALL
No Charge or Current Charge


@<TRIPOS>ATOM
      1 CAA         -5.4740    -1.5830     2.7820 c3         1 DRW      -0.127100
      2 CAB         -3.9160    -1.0670    -2.3810 c3         1 DRW      -0.085100
      3 NAC          7.4990    -0.9550    -0.8230 n8         1 DRW      -1.030100
      4 OAD         -7.0430    -0.2600    -1.4850 o          1 DRW      -0.569100
      5 OAE         -2.4850     3.3700    -1.1890 o          1 DRW      -0.696000
      6 OAF          6.8290    -1.6810     1.4150 o          1 DRW      -0.544500
      7 OAG          7.8290     0.6450     1.0100 o          1 DRW      -0.544500
      8 OAH         -0.9620     2.1610    -2.0820 o          1 DRW      -0.696000
      9 OAI         -5.9340     0.7370     2.2680 oh         1 DRW      -0.624000
     10 CAJ         -6.3100     0.1850    -0.6030 c          1 DRW       0.600900
     11 CAK          1.3990    -0.3790    -1.3230 c5         1 DRW       0.144800
     12 CAM          1.7460    -0.1290     1.0780 c5         1 DRW      -0.100400
     13 NAN         -3.6120     1.0030     0.0590 n2         1 DRW      -0.535900
     14 NAO          2.8160    -0.6550    -0.9380 n7         1 DRW      -0.840400
     15 SAQ         -0.7840    -1.0050     0.3680 ss         1 DRW      -0.522000
     16 CAS         -2.4750     1.0560    -0.5870 ce         1 DRW       0.329300
     17 CAT         -6.0730    -0.5900     1.7630 c3         1 DRW       0.186300
     18 CAU         -3.2030    -1.1230    -1.0040 c5         1 DRW      -0.082700
     19 CAV          3.0320     0.1770     0.2770 c5         1 DRW       0.132500
     20 CAW          0.6740     0.1040    -0.0200 c5         1 DRW       0.073300
     21 CAX         -5.4800    -0.7050     0.3310 c3         1 DRW      -0.151700
     22 CAY         -3.9430    -0.4390     0.2010 c5         1 DRW       0.095500
     23 CAZ         -1.8840    -0.3030    -0.9950 c5         1 DRW       0.022000
     24 SBA          6.9820    -0.4730     0.6170 s6         1 DRW       1.243200
     25 HAA         -6.0450    -1.5620     3.7180 hc         1 DRW       0.038367
     26 HAAA        -5.5110    -2.6060     2.3900 hc         1 DRW       0.038367
     27 HAAB        -4.4310    -1.3420     3.0190 hc         1 DRW       0.038367
     28 HAB         -4.1950    -0.0440    -2.6570 hc         1 DRW       0.035033
     29 HABA        -3.2630    -1.4570    -3.1720 hc         1 DRW       0.035033
     30 HABB        -4.8240    -1.6820    -2.3830 hc         1 DRW       0.035033
     31 HNAC         8.2000    -0.2410    -1.0050 hn         1 DRW       0.468000
     32 HNAA         8.0790    -1.7470    -0.5590 hn         1 DRW       0.468000
     33 HOAI        -6.2670     0.7290     3.1900 ho         1 DRW       0.427000
     34 HAJ         -6.2270     1.2830    -0.4340 h4         1 DRW       0.036200
     35 HAK          1.3510     0.4130    -2.0850 h1         1 DRW       0.085200
     36 HAKA         0.9260    -1.2720    -1.7580 h1         1 DRW       0.085200
     37 HAL          4.3010    -1.2170     1.3350 h1         1 DRW       0.045200
     38 HALA         4.4140     0.4470     1.9380 h1         1 DRW       0.045200
     39 HAM          1.7440    -1.1610     1.4500 hc         1 DRW       0.054700
     40 HAMA         1.6130     0.5350     1.9390 hc         1 DRW       0.054700
     41 HNAO         2.8750    -1.6390    -0.6520 hn         1 DRW       0.387000
     42 HNAP         5.4210    -0.4640    -0.6940 hn         1 DRW       0.495000
     43 HAT         -7.1430    -0.8290     1.6870 h1         1 DRW       0.020700
     44 HAU         -3.0180    -2.1850    -0.8030 hc         1 DRW       0.051700
     45 HAV          3.0690     1.2450     0.0110 h1         1 DRW       0.087700
     46 HAW          0.3910     1.1630    -0.0810 h1         1 DRW       0.121700
     47 HAX         -5.6630    -1.7400     0.0190 hc         1 DRW       0.054700
     48 HAY         -3.4750    -0.8010     1.1250 h1         1 DRW       0.065700
     49 HAZ         -1.3760    -0.3060    -1.9690 h1         1 DRW       0.099700
     50 CAR         -1.9340     2.2840    -1.3440 c          1 DRW       0.633700
     51 CAL          4.3520    -0.1630     1.0260 c3         1 DRW       0.198800
     52 NAP          5.5200     0.0760     0.1630 n7         1 DRW      -0.883300
@<TRIPOS>BOND
     1     1    17 1   
     2     1    25 1   
     3     1    26 1   
     4     1    27 1   
     5     2    18 1   
     6     2    28 1   
     7     2    29 1   
     8     2    30 1   
     9     3    24 1   
    10     3    31 1   
    11     3    32 1   
    12     4    10 2   
    13     5    50 1   
    14     6    24 2   
    15     7    24 2   
    16     8    50 1   
    17     9    17 1   
    18     9    33 1   
    19    10    21 1   
    20    10    34 1   
    21    11    14 1   
    22    11    20 1   
    23    11    35 1   
    24    11    36 1   
    25    12    19 1   
    26    12    20 1   
    27    12    39 1   
    28    12    40 1   
    29    13    16 2   
    30    13    22 1   
    31    14    19 1   
    32    14    41 1   
    33    15    20 1   
    34    15    23 1   
    35    16    23 1   
    36    16    50 1   
    37    17    21 1   
    38    17    43 1   
    39    18    22 1   
    40    18    23 1   
    41    18    44 1   
    42    19    45 1   
    43    19    51 1   
    44    20    46 1   
    45    21    22 1   
    46    21    47 1   
    47    22    48 1   
    48    23    49 1   
    49    24    52 1   
    50    37    51 1   
    51    38    51 1   
    52    42    52 1   
    53    51    52 1   
@<TRIPOS>SUBSTRUCTURE
     1 DRW         1 TEMP              0 ****  ****    0 ROOT
