@<TRIPOS>MOLECULE
DRX
   41    44     1     0     0
SMALL
No Charge or Current Charge


@<TRIPOS>ATOM
      1 CAO          8.6140    -6.4800    -0.3890 ca         1 DRX      -0.026800
      2 CAP          7.5940    -7.4360    -0.5500 ca         1 DRX      -0.043000
      3 CAQ          7.7260    -8.6820     0.0930 ca         1 DRX       0.096000
      4 ClR          6.4680    -9.8980    -0.0880 cl         1 DRX      -0.267000
      5 CBB          8.8610    -8.9610     0.8820 ca         1 DRX      -0.138000
      6 CBA          9.8710    -7.9920     1.0340 ca         1 DRX      -0.087000
      7 CAZ          9.7230    -6.7560     0.3870 ca         1 DRX      -0.165000
      8 SBC         10.8890    -5.4170     0.4690 ss         1 DRX      -0.052600
      9 CAY          9.8150    -4.4520    -0.5800 cc         1 DRX      -0.106400
     10 CAN          8.6740    -5.1420    -0.9540 cd         1 DRX       0.047600
     11 CAM          7.5780    -4.5730    -1.8280 c3         1 DRX      -0.397500
     12 PAD          7.9950    -3.2880    -3.0310 p5         1 DRX       1.282500
     13 OAB          6.7540    -2.9330    -3.7730 o          1 DRX      -0.874167
     14 OAE          8.5610    -2.0950    -2.3430 o          1 DRX      -0.874167
     15 OAC          9.0020    -3.8640    -3.9670 o          1 DRX      -0.874167
     16 CAL          6.4180    -3.9870    -1.0590 c          1 DRX       0.648100
     17 OAX          6.5870    -3.2170    -0.1190 o          1 DRX      -0.670100
     18 NAK          5.1750    -4.4490    -1.4650 ns         1 DRX      -0.182000
     19 CAW          3.8570    -4.1860    -1.0050 ca         1 DRX       0.056000
     20 CAV          2.8150    -4.9690    -1.5380 ca         1 DRX      -0.202000
     21 CAU          1.4830    -4.7680    -1.1320 ca         1 DRX       0.006000
     22 CAT          0.4490    -5.5600    -1.6670 ca         1 DRX      -0.100000
     23 CAS         -0.8800    -5.3560    -1.2580 ca         1 DRX      -0.134000
     24 CAF         -1.1800    -4.3600    -0.3130 ca         1 DRX      -0.166000
     25 CAG         -0.1520    -3.5660     0.2240 ca         1 DRX      -0.084000
     26 CAH          1.1810    -3.7690    -0.1830 ca         1 DRX      -0.095000
     27 CAI          2.2150    -2.9790     0.3490 ca         1 DRX      -0.113000
     28 CAJ          3.5440    -3.1840    -0.0600 ca         1 DRX      -0.124000
     29 HAP          6.7170    -7.2280    -1.1540 ha         1 DRX       0.140000
     30 HBB          8.9550    -9.9250     1.3750 ha         1 DRX       0.097000
     31 HBA         10.7490    -8.1980     1.6420 ha         1 DRX       0.097000
     32 HAY         10.1080    -3.4420    -0.8380 h4         1 DRX       0.264000
     33 HAM          7.2100    -5.3480    -2.5060 hc         1 DRX       0.068700
     34 HNAK         5.2160    -5.0860    -2.2470 hn         1 DRX       0.246000
     35 HAV          3.0400    -5.7430    -2.2690 ha         1 DRX       0.148000
     36 HAT          0.6740    -6.3330    -2.3990 ha         1 DRX       0.109000
     37 HAS         -1.6770    -5.9690    -1.6730 ha         1 DRX       0.083000
     38 HAF         -2.2080    -4.2020     0.0030 ha         1 DRX       0.081000
     39 HAG         -0.3910    -2.7970     0.9550 ha         1 DRX       0.085000
     40 HAI          1.9910    -2.2030     1.0770 ha         1 DRX       0.084000
     41 HAJ          4.3140    -2.5480     0.3640 ha         1 DRX       0.136000
@<TRIPOS>BOND
     1     1     2 ar  
     2     1     7 ar  
     3     1    10 1   
     4     2     3 ar  
     5     2    29 1   
     6     3     4 1   
     7     3     5 ar  
     8     5     6 ar  
     9     5    30 1   
    10     6     7 ar  
    11     6    31 1   
    12     7     8 1   
    13     8     9 1   
    14     9    10 2   
    15     9    32 1   
    16    10    11 1   
    17    11    12 1   
    18    11    16 1   
    19    11    33 1   
    20    12    13 1   
    21    12    14 1   
    22    12    15 1   
    23    16    17 2   
    24    16    18 1   
    25    18    19 1   
    26    18    34 1   
    27    19    20 ar  
    28    19    28 ar  
    29    20    21 ar  
    30    20    35 1   
    31    21    22 ar  
    32    21    26 ar  
    33    22    23 ar  
    34    22    36 1   
    35    23    24 ar  
    36    23    37 1   
    37    24    25 ar  
    38    24    38 1   
    39    25    26 ar  
    40    25    39 1   
    41    26    27 ar  
    42    27    28 ar  
    43    27    40 1   
    44    28    41 1   
@<TRIPOS>SUBSTRUCTURE
     1 DRX         1 TEMP              0 ****  ****    0 ROOT
