@<TRIPOS>MOLECULE
DRX
   41    44     1     0     0
SMALL
bcc


@<TRIPOS>ATOM
      1 CAO          9.0560    -6.5280    -0.2300 ca         1 DRX      -0.026800
      2 CAP          8.6720    -7.8740    -0.2080 ca         1 DRX      -0.061000
      3 CAQ          9.5010    -8.7900     0.4010 ca         1 DRX       0.004400
      4 CLR          9.0340   -10.4630     0.4300 cl         1 DRX      -0.175400
      5 CBB         10.7100    -8.4220     0.9990 ca         1 DRX      -0.156000
      6 CBA         11.0980    -7.0970     0.9870 ca         1 DRX      -0.105000
      7 CAZ         10.2720    -6.1600     0.3730 ca         1 DRX      -0.038100
      8 SBC         10.5410    -4.4570     0.2350 ss         1 DRX      -0.179500
      9 CAY          9.0550    -4.2590    -0.6290 cc         1 DRX      -0.056400
     10 CAN          8.3600    -5.4070    -0.8110 cd         1 DRX       0.047600
     11 CAM          7.0500    -5.5030    -1.5060 c3         1 DRX      -0.239700
     12 PAD          7.0880    -4.7530    -3.2620 p5         1 DRX       1.124700
     13 OAB          5.6750    -5.1360    -3.7780 o          1 DRX      -0.874167
     14 OAE          7.2790    -3.2560    -3.0550 o          1 DRX      -0.874167
     15 OAC          8.2120    -5.4820    -3.9780 o          1 DRX      -0.874167
     16 CAL          5.9230    -4.9240    -0.6790 c          1 DRX       0.715100
     17 OAX          6.0730    -4.4630     0.4410 o          1 DRX      -0.670100
     18 NAK          4.7310    -4.9770    -1.3340 ns         1 DRX      -0.508100
     19 CAW          3.4890    -4.5520    -0.8910 ca         1 DRX       0.148600
     20 CAV          2.5310    -4.2640    -1.8420 ca         1 DRX      -0.220000
     21 CAU          1.2230    -3.8840    -1.4810 ca         1 DRX       0.006000
     22 CAT          0.2330    -3.5870    -2.4510 ca         1 DRX      -0.118000
     23 CAS         -1.0290    -3.2200    -2.0710 ca         1 DRX      -0.152000
     24 CAF         -1.3700    -3.1300    -0.7040 ca         1 DRX      -0.184000
     25 CAG         -0.4330    -3.4090     0.2540 ca         1 DRX      -0.102000
     26 CAH          0.8790    -3.7890    -0.1080 ca         1 DRX      -0.095000
     27 CAI          1.8740    -4.0900     0.8490 ca         1 DRX      -0.131000
     28 CAJ          3.1380    -4.4600     0.4830 ca         1 DRX      -0.142000
     29 HAP          7.7410    -8.1900    -0.6600 ha         1 DRX       0.158000
     30 HBB         11.3360    -9.1680     1.4680 ha         1 DRX       0.115000
     31 HBA         12.0330    -6.8030     1.4460 ha         1 DRX       0.115000
     32 HAY          8.7700    -3.2820    -0.9880 h4         1 DRX       0.214000
     33 HAM          6.8060    -6.5580    -1.6770 hc         1 DRX       0.068700
     34 HNAK         4.8590    -5.1190    -2.3700 hn         1 DRX       0.412500
     35 HAV          2.7860    -4.3320    -2.8940 ha         1 DRX       0.166000
     36 HAT          0.4900    -3.6540    -3.5020 ha         1 DRX       0.127000
     37 HAS         -1.7760    -2.9970    -2.8230 ha         1 DRX       0.101000
     38 HAF         -2.3720    -2.8400    -0.4190 ha         1 DRX       0.099000
     39 HAG         -0.6880    -3.3400     1.3060 ha         1 DRX       0.103000
     40 HAI          1.6230    -4.0310     1.9020 ha         1 DRX       0.102000
     41 HAJ          3.8650    -4.6890     1.2450 ha         1 DRX       0.154000
@<TRIPOS>BOND
     1     1     2 ar  
     2     1     7 ar  
     3     1    10 1   
     4     2     3 ar  
     5     2    29 1   
     6     3     4 1   
     7     3     5 ar  
     8     5     6 ar  
     9     5    30 1   
    10     6     7 ar  
    11     6    31 1   
    12     7     8 1   
    13     8     9 1   
    14     9    10 2   
    15     9    32 1   
    16    10    11 1   
    17    11    12 1   
    18    11    16 1   
    19    11    33 1   
    20    12    13 1   
    21    12    14 1   
    22    12    15 1   
    23    16    17 2   
    24    16    18 1   
    25    18    19 1   
    26    18    34 1   
    27    19    20 ar  
    28    19    28 ar  
    29    20    21 ar  
    30    20    35 1   
    31    21    22 ar  
    32    21    26 ar  
    33    22    23 ar  
    34    22    36 1   
    35    23    24 ar  
    36    23    37 1   
    37    24    25 ar  
    38    24    38 1   
    39    25    26 ar  
    40    25    39 1   
    41    26    27 ar  
    42    27    28 ar  
    43    27    40 1   
    44    28    41 1   
@<TRIPOS>SUBSTRUCTURE
     1 DRX         1 TEMP              0 ****  ****    0 ROOT
