@<TRIPOS>MOLECULE
DRY
   69    73     1     0     0
SMALL
bcc


@<TRIPOS>ATOM
      1 CAO        -32.7360     7.3280    44.9650 ca         1 DRY      -0.085500
      2 CAR        -32.7450     7.1830    46.3420 ca         1 DRY      -0.144000
      3 CAQ        -33.3530     6.0760    46.9210 ca         1 DRY      -0.112000
      4 CAP        -33.9550     5.1160    46.1190 ca         1 DRY      -0.144000
      5 CAS        -33.9660     5.2710    44.7400 ca         1 DRY      -0.085500
      6 CAT        -33.3610     6.3810    44.1520 ca         1 DRY      -0.161600
      7 CAU        -33.2890     6.5450    42.6740 c          1 DRY       0.594300
      8 OBH        -32.3160     7.0670    42.1630 o          1 DRY      -0.520100
      9 CAV        -34.4110     6.0720    41.8300 ca         1 DRY      -0.180600
     10 CBA        -35.7100     6.0760    42.2740 ca         1 DRY      -0.060000
     11 CAW        -34.1500     5.6900    40.4910 ca         1 DRY      -0.085000
     12 CAZ        -35.1580     5.3000    39.6610 ca         1 DRY      -0.127000
     13 CAY        -36.5140     5.2940    40.0910 ca         1 DRY       0.024000
     14 CBD        -37.5780     4.8950    39.2410 ca         1 DRY      -0.098300
     15 CBE        -37.3020     4.5080    37.8140 c3         1 DRY      -0.024100
     16 CBF        -37.1110     5.7320    36.9120 c3         1 DRY      -0.076400
     17 CBG        -36.6440     5.3530    35.5160 c3         1 DRY      -0.087100
     18 CAX        -36.7740     5.7040    41.4260 ca         1 DRY      -0.086000
     19 CBB        -38.1060     5.7290    41.8840 ca         1 DRY      -0.085000
     20 CBC        -39.1300     5.3470    41.0660 ca         1 DRY      -0.198000
     21 CAE        -38.8710     4.9190    39.7420 ca         1 DRY       0.153100
     22 OAD        -39.8620     4.5220    38.9220 os         1 DRY      -0.301900
     23 CAC        -41.1430     4.2540    39.4760 c3         1 DRY       0.147400
     24 CAB        -41.9910     3.4910    38.4820 c3         1 DRY      -0.097400
     25 CAA        -42.5470     4.2890    37.3110 c3         1 DRY       0.062300
     26 NAM        -41.5740     4.6850    36.3170 na         1 DRY      -0.059400
     27 CAN        -41.0650     3.8530    35.3610 cc         1 DRY      -0.131100
     28 CAF        -40.2380     4.5450    34.5210 cd         1 DRY      -0.198200
     29 CAG        -40.2330     5.8970    34.9770 ca         1 DRY      -0.056800
     30 CAL        -39.5960     7.0610    34.5210 ca         1 DRY      -0.203000
     31 CAH        -41.0720     5.9440    36.1070 ca         1 DRY      -0.087200
     32 CAK        -41.2750     7.1360    36.8020 ca         1 DRY      -0.128000
     33 CAJ        -40.6440     8.2710    36.3420 ca         1 DRY      -0.140000
     34 CAI        -39.8100     8.2460    35.2020 ca         1 DRY       0.143100
     35 OBI        -39.2710     9.4370    34.8590 os         1 DRY      -0.276900
     36 CBJ        -38.3510     9.4720    33.7900 c3         1 DRY      -0.021600
     37 CBK        -37.8430    10.9030    33.5300 c          1 DRY       0.940600
     38 OBM        -38.3530    11.8380    34.1640 o          1 DRY      -0.819800
     39 OBL        -36.9510    10.9560    32.6610 o          1 DRY      -0.819800
     40 HBJ1       -37.4960     8.8150    33.9960 h1         1 DRY       0.014200
     41 HBJ2       -38.8150     9.1010    32.8660 h1         1 DRY       0.014200
     42 HAJ        -40.7840     9.2110    36.8600 ha         1 DRY       0.144000
     43 HAK        -41.9040     7.1860    37.6830 ha         1 DRY       0.113000
     44 HAN        -41.3440     2.8110    35.3440 h4         1 DRY       0.142000
     45 HAF        -39.7050     4.1380    33.6770 ha         1 DRY       0.145000
     46 HAL        -38.9510     7.0050    33.6550 ha         1 DRY       0.144000
     47 HAA1       -43.3130     3.6920    36.8140 h1         1 DRY       0.049200
     48 HAA2       -43.0500     5.1860    37.6760 h1         1 DRY       0.049200
     49 HAB1       -41.4500     2.6100    38.1280 hc         1 DRY       0.052700
     50 HAB2       -42.8510     3.1130    39.0410 hc         1 DRY       0.052700
     51 HAC1       -41.0390     3.6470    40.3810 h1         1 DRY       0.030200
     52 HAC2       -41.6410     5.1880    39.7610 h1         1 DRY       0.030200
     53 HBC        -40.1410     5.3810    41.4470 ha         1 DRY       0.130000
     54 HBB        -38.3150     6.0540    42.8960 ha         1 DRY       0.127000
     55 HBA        -35.9490     6.3910    43.2830 ha         1 DRY       0.131000
     56 HAW        -33.1300     5.6890    40.1270 ha         1 DRY       0.145000
     57 HAZ        -34.9090     4.9930    38.6550 ha         1 DRY       0.145000
     58 HBE1       -36.4070     3.8810    37.7660 hc         1 DRY       0.046700
     59 HBE2       -38.1120     3.8970    37.4160 hc         1 DRY       0.046700
     60 HBF1       -38.0570     6.2760    36.8500 hc         1 DRY       0.055200
     61 HBF2       -36.3890     6.4150    37.3660 hc         1 DRY       0.055200
     62 HBG1       -36.5380     6.2350    34.8840 hc         1 DRY       0.031700
     63 HBG2       -35.6760     4.8470    35.5490 hc         1 DRY       0.031700
     64 HBG3       -37.3550     4.6830    35.0300 hc         1 DRY       0.031700
     65 HAS        -34.4280     4.5100    44.1240 ha         1 DRY       0.144500
     66 HAP        -34.4160     4.2450    46.5650 ha         1 DRY       0.131000
     67 HAQ        -33.3550     5.9600    47.9970 ha         1 DRY       0.127000
     68 HAR        -32.2730     7.9310    46.9650 ha         1 DRY       0.131000
     69 HAO        -32.2560     8.1890    44.5170 ha         1 DRY       0.144500
@<TRIPOS>BOND
     1     1     2 ar  
     2     1     6 ar  
     3     1    69 1   
     4     2     3 ar  
     5     2    68 1   
     6     3     4 ar  
     7     3    67 1   
     8     4     5 ar  
     9     4    66 1   
    10     5     6 ar  
    11     5    65 1   
    12     6     7 1   
    13     7     8 2   
    14     7     9 1   
    15     9    10 ar  
    16     9    11 ar  
    17    10    18 ar  
    18    10    55 1   
    19    11    12 ar  
    20    11    56 1   
    21    12    13 ar  
    22    12    57 1   
    23    13    14 ar  
    24    13    18 ar  
    25    14    15 1   
    26    14    21 ar  
    27    15    16 1   
    28    15    58 1   
    29    15    59 1   
    30    16    17 1   
    31    16    60 1   
    32    16    61 1   
    33    17    62 1   
    34    17    63 1   
    35    17    64 1   
    36    18    19 ar  
    37    19    20 ar  
    38    19    54 1   
    39    20    21 ar  
    40    20    53 1   
    41    21    22 1   
    42    22    23 1   
    43    23    24 1   
    44    23    51 1   
    45    23    52 1   
    46    24    25 1   
    47    24    49 1   
    48    24    50 1   
    49    25    26 1   
    50    25    47 1   
    51    25    48 1   
    52    26    27 1   
    53    26    31 1   
    54    27    28 2   
    55    27    44 1   
    56    28    29 1   
    57    28    45 1   
    58    29    30 ar  
    59    29    31 ar  
    60    30    34 ar  
    61    30    46 1   
    62    31    32 ar  
    63    32    33 ar  
    64    32    43 1   
    65    33    34 ar  
    66    33    42 1   
    67    34    35 1   
    68    35    36 1   
    69    36    37 1   
    70    36    40 1   
    71    36    41 1   
    72    37    38 1   
    73    37    39 1   
@<TRIPOS>SUBSTRUCTURE
     1 DRY         1 TEMP              0 ****  ****    0 ROOT
