@<TRIPOS>MOLECULE
DRY
   69    73     1     0     0
SMALL
No Charge or Current Charge


@<TRIPOS>ATOM
      1 CAO        -32.7990     7.6730    44.8290 ca         1 DRY      -0.067500
      2 CAR        -32.8610     7.5560    46.2290 ca         1 DRY      -0.126000
      3 CAQ        -33.4950     6.4500    46.8170 ca         1 DRY      -0.094000
      4 CAP        -34.0620     5.4560    46.0040 ca         1 DRY      -0.126000
      5 CAS        -34.0030     5.5700    44.6040 ca         1 DRY      -0.067500
      6 CAT        -33.3820     6.6880    44.0020 ca         1 DRY      -0.161600
      7 CAU        -33.2950     6.8210    42.4970 c          1 DRY       0.594300
      8 OBH        -32.3330     7.3770    41.9780 o          1 DRY      -0.520100
      9 CAV        -34.4060     6.2590    41.6400 ca         1 DRY      -0.180600
     10 CBA        -35.7420     6.2500    42.0880 ca         1 DRY      -0.042000
     11 CAW        -34.1230     5.7710    40.3500 ca         1 DRY      -0.067000
     12 CAZ        -35.1470     5.2570    39.5370 ca         1 DRY      -0.109000
     13 CAY        -36.4890     5.2260    39.9870 ca         1 DRY       0.024000
     14 CBD        -37.5480     4.7080    39.1830 ca         1 DRY      -0.098300
     15 CBE        -37.2850     4.1510    37.7740 c3         1 DRY      -0.024100
     16 CBF        -37.1580     5.2750    36.7230 c3         1 DRY      -0.076400
     17 CBG        -36.9090     4.7490    35.2970 c3         1 DRY      -0.087100
     18 CAX        -36.7710     5.7350    41.2760 ca         1 DRY      -0.086000
     19 CBB        -38.0860     5.7390    41.7640 ca         1 DRY      -0.067000
     20 CBC        -39.1300     5.2340    40.9810 ca         1 DRY      -0.180000
     21 CAE        -38.8730     4.7170    39.6930 ca         1 DRY       0.153100
     22 OAD        -39.9000     4.2110    38.9120 os         1 DRY      -0.325100
     23 CAC        -41.2290     4.0210    39.4230 c3         1 DRY       0.170600
     24 CAB        -42.0980     3.3470    38.3400 c3         1 DRY      -0.097400
     25 CAA        -42.6370     4.3010    37.2500 c3         1 DRY       0.091600
     26 NAM        -41.6530     4.6950    36.2240 na         1 DRY      -0.088700
     27 CAN        -41.3370     3.9770    35.0520 cc         1 DRY      -0.181100
     28 CAF        -40.5210     4.8370    34.3320 cd         1 DRY      -0.248200
     29 CAG        -40.3240     6.0690    35.0480 ca         1 DRY      -0.056800
     30 CAL        -39.5810     7.2110    34.7310 ca         1 DRY      -0.185000
     31 CAH        -41.0290     5.9410    36.2140 ca         1 DRY      -0.087200
     32 CAK        -41.0300     6.9670    37.1730 ca         1 DRY      -0.110000
     33 CAJ        -40.2860     8.1340    36.8920 ca         1 DRY      -0.122000
     34 CAI        -39.5620     8.2630    35.6810 ca         1 DRY       0.143100
     35 OBI        -38.8500     9.4280    35.4760 os         1 DRY      -0.300100
     36 CBJ        -38.0490     9.6420    34.2870 c3         1 DRY       0.001600
     37 CBK        -37.3280    11.0230    34.2700 c          1 DRY       0.730000
     38 OBM        -37.4790    11.7980    35.2070 o          1 DRY      -0.714500
     39 OBL        -36.6280    11.2830    33.2990 o          1 DRY      -0.714500
     40 HBJ1       -37.2790     8.8640    34.2090 h1         1 DRY       0.014200
     41 HBJ2       -38.6820     9.5870    33.3920 h1         1 DRY       0.014200
     42 HAJ        -40.2630     8.9440    37.6160 ha         1 DRY       0.126000
     43 HAK        -41.5760     6.8730    38.1070 ha         1 DRY       0.095000
     44 HAN        -41.7150     2.9830    34.8360 h4         1 DRY       0.192000
     45 HAF        -40.0930     4.6080    33.3590 ha         1 DRY       0.195000
     46 HAL        -39.0350     7.2620    33.7940 ha         1 DRY       0.126000
     47 HAA1       -43.4580     3.7910    36.7290 h1         1 DRY       0.049200
     48 HAA2       -43.0680     5.1950    37.7160 h1         1 DRY       0.049200
     49 HAB1       -41.5510     2.5160    37.8800 hc         1 DRY       0.052700
     50 HAB2       -42.9640     2.9040    38.8460 hc         1 DRY       0.052700
     51 HAC1       -41.1980     3.3650    40.3030 h1         1 DRY       0.030200
     52 HAC2       -41.6830     4.9750    39.7210 h1         1 DRY       0.030200
     53 HBC        -40.1340     5.2570    41.3940 ha         1 DRY       0.112000
     54 HBB        -38.3040     6.1330    42.7550 ha         1 DRY       0.109000
     55 HBA        -35.9890     6.6550    43.0670 ha         1 DRY       0.113000
     56 HAW        -33.1020     5.7810    39.9740 ha         1 DRY       0.127000
     57 HAZ        -34.8680     4.8900    38.5550 ha         1 DRY       0.127000
     58 HBE1       -36.3840     3.5270    37.7640 hc         1 DRY       0.046700
     59 HBE2       -38.0860     3.4720    37.4590 hc         1 DRY       0.046700
     60 HBF1       -38.0770     5.8690    36.7350 hc         1 DRY       0.055200
     61 HBF2       -36.3440     5.9550    36.9990 hc         1 DRY       0.055200
     62 HBG1       -36.8530     5.5830    34.5870 hc         1 DRY       0.031700
     63 HBG2       -35.9670     4.1910    35.2480 hc         1 DRY       0.031700
     64 HBG3       -37.7220     4.0840    34.9820 hc         1 DRY       0.031700
     65 HAS        -34.4310     4.7780    43.9920 ha         1 DRY       0.126500
     66 HAP        -34.5440     4.5930    46.4580 ha         1 DRY       0.113000
     67 HAQ        -33.5410     6.3600    47.9000 ha         1 DRY       0.109000
     68 HAR        -32.4150     8.3240    46.8570 ha         1 DRY       0.113000
     69 HAO        -32.3040     8.5360    44.3880 ha         1 DRY       0.126500
@<TRIPOS>BOND
     1     1     2 ar  
     2     1     6 ar  
     3     1    69 1   
     4     2     3 ar  
     5     2    68 1   
     6     3     4 ar  
     7     3    67 1   
     8     4     5 ar  
     9     4    66 1   
    10     5     6 ar  
    11     5    65 1   
    12     6     7 1   
    13     7     8 2   
    14     7     9 1   
    15     9    10 ar  
    16     9    11 ar  
    17    10    18 ar  
    18    10    55 1   
    19    11    12 ar  
    20    11    56 1   
    21    12    13 ar  
    22    12    57 1   
    23    13    14 ar  
    24    13    18 ar  
    25    14    15 1   
    26    14    21 ar  
    27    15    16 1   
    28    15    58 1   
    29    15    59 1   
    30    16    17 1   
    31    16    60 1   
    32    16    61 1   
    33    17    62 1   
    34    17    63 1   
    35    17    64 1   
    36    18    19 ar  
    37    19    20 ar  
    38    19    54 1   
    39    20    21 ar  
    40    20    53 1   
    41    21    22 1   
    42    22    23 1   
    43    23    24 1   
    44    23    51 1   
    45    23    52 1   
    46    24    25 1   
    47    24    49 1   
    48    24    50 1   
    49    25    26 1   
    50    25    47 1   
    51    25    48 1   
    52    26    27 1   
    53    26    31 1   
    54    27    28 2   
    55    27    44 1   
    56    28    29 1   
    57    28    45 1   
    58    29    30 ar  
    59    29    31 ar  
    60    30    34 ar  
    61    30    46 1   
    62    31    32 ar  
    63    32    33 ar  
    64    32    43 1   
    65    33    34 ar  
    66    33    42 1   
    67    34    35 1   
    68    35    36 1   
    69    36    37 1   
    70    36    40 1   
    71    36    41 1   
    72    37    38 1   
    73    37    39 1   
@<TRIPOS>SUBSTRUCTURE
     1 DRY         1 TEMP              0 ****  ****    0 ROOT
