@<TRIPOS>MOLECULE
DS1
   13    13     1     0     0
SMALL
abcg2


@<TRIPOS>ATOM
      1 C3           0.6570     1.0850     0.1470 ca         1 DS1       0.097400
      2 C2           1.3600    -0.1100     0.1000 ca         1 DS1      -0.028900
      3 C1           0.5840    -1.2590     0.0110 ca         1 DS1       0.097400
      4 O            2.7060    -0.2160     0.1300 oh         1 DS1      -0.521100
      5 N1          -0.7360    -1.2230    -0.0250 nb         1 DS1      -0.211000
      6 N2          -0.6650     1.1340     0.1140 nb         1 DS1      -0.211000
      7 C           -1.3180    -0.0240     0.0310 ca         1 DS1       0.332900
      8 N           -2.6780     0.0150     0.0460 nv         1 DS1      -1.039900
      9 H4           1.1810     2.0350     0.2130 h4         1 DS1       0.028600
     10 H2           1.0540    -2.2370    -0.0360 h4         1 DS1       0.028600
     11 H3           3.1080     0.6520     0.2410 ho         1 DS1       0.464000
     12 H1          -3.1100     0.8900    -0.2020 hn         1 DS1       0.481000
     13 H           -3.1580    -0.8020    -0.2910 hn         1 DS1       0.481000
@<TRIPOS>BOND
     1     1     2 ar  
     2     1     6 ar  
     3     1     9 1   
     4     2     3 ar  
     5     2     4 1   
     6     3     5 ar  
     7     3    10 1   
     8     4    11 1   
     9     5     7 ar  
    10     6     7 ar  
    11     7     8 1   
    12     8    12 1   
    13     8    13 1   
@<TRIPOS>SUBSTRUCTURE
     1 DS1         1 TEMP              0 ****  ****    0 ROOT
