@<TRIPOS>MOLECULE
DS1
   13    13     1     0     0
SMALL
No Charge or Current Charge


@<TRIPOS>ATOM
      1 C3           0.6760     1.0980     0.1550 ca         1 DS1       0.097400
      2 C2           1.3660    -0.1320     0.1060 ca         1 DS1      -0.028900
      3 C1           0.5880    -1.3050     0.0120 ca         1 DS1       0.097400
      4 O            2.7360    -0.1930     0.1470 oh         1 DS1      -0.521100
      5 N1          -0.7610    -1.2540    -0.0290 nb         1 DS1      -0.211000
      6 N2          -0.6730     1.1500     0.1150 nb         1 DS1      -0.211000
      7 C           -1.3120    -0.0290     0.0260 ca         1 DS1       0.332900
      8 N           -2.6690     0.0230    -0.0170 nv         1 DS1      -1.039900
      9 H4           1.2020     2.0480     0.2280 h4         1 DS1       0.028600
     10 H2           1.0450    -2.2920    -0.0310 h4         1 DS1       0.028600
     11 H3           3.1040     0.7170     0.2120 ho         1 DS1       0.464000
     12 H1          -3.1250     0.9210    -0.1710 hn         1 DS1       0.481000
     13 H           -3.1920    -0.8120    -0.2740 hn         1 DS1       0.481000
@<TRIPOS>BOND
     1     1     2 ar  
     2     1     6 ar  
     3     1     9 1   
     4     2     3 ar  
     5     2     4 1   
     6     3     5 ar  
     7     3    10 1   
     8     4    11 1   
     9     5     7 ar  
    10     6     7 ar  
    11     7     8 1   
    12     8    12 1   
    13     8    13 1   
@<TRIPOS>SUBSTRUCTURE
     1 DS1         1 TEMP              0 ****  ****    0 ROOT
