@<TRIPOS>MOLECULE
DS2
   69    70     1     0     0
SMALL
No Charge or Current Charge


@<TRIPOS>ATOM
      1 C1          -4.4840     0.4250     0.0230 ca         1 DS2       0.172100
      2 O1          -8.9430     1.9010     1.2020 o          1 DS2      -0.713500
      3 C2          -3.2740     0.8700    -0.5440 ca         1 DS2      -0.125300
      4 O2          -7.5070     3.2270     0.3030 o          1 DS2      -0.713500
      5 C3          -2.1930    -0.0240    -0.6730 ca         1 DS2      -0.080000
      6 C4          -2.2810    -1.3660    -0.2300 ca         1 DS2      -0.146300
      7 C5          -3.5150    -1.8000     0.3100 ca         1 DS2      -0.075000
      8 C6          -4.5990    -0.9160     0.4420 ca         1 DS2      -0.219000
      9 C10         -1.0690    -2.3320    -0.4120 c3         1 DS2       0.073600
     10 C11          0.2870    -1.5960    -0.1770 ca         1 DS2      -0.081300
     11 C12         -1.0920    -3.5460     0.5850 c3         1 DS2      -0.062900
     12 C13         -1.1990    -2.9410    -1.8550 c3         1 DS2      -0.062900
     13 C14         -1.1170    -1.9490    -3.0410 c3         1 DS2      -0.087600
     14 C20         -1.0520    -3.2100     2.0960 c3         1 DS2      -0.087600
     15 C26          0.3930    -0.6050     0.8280 ca         1 DS2      -0.066000
     16 C27          1.6060     0.0630     1.0840 ca         1 DS2      -0.106300
     17 C28          2.7550    -0.2670     0.3380 ca         1 DS2       0.126100
     18 C29          2.6750    -1.2730    -0.6460 ca         1 DS2      -0.207000
     19 C30          1.4600    -1.9330    -0.8940 ca         1 DS2      -0.084000
     20 C34         -3.1250     2.3100    -1.0250 c3         1 DS2      -0.028800
     21 C38          1.6670     1.1330     2.1690 c3         1 DS2      -0.033800
     22 O42          3.9340     0.4030     0.6070 os         1 DS2      -0.337100
     23 C43          5.1590     0.1230    -0.0990 c3         1 DS2       0.132600
     24 C44          6.2670     1.0570     0.4690 c3         1 DS2       0.173300
     25 O47          5.7740     2.4100     0.4670 oh         1 DS2      -0.640000
     26 C48          7.6620     0.9720    -0.2600 c3         1 DS2      -0.076000
     27 C50          7.5670     1.4090    -1.7510 c3         1 DS2      -0.084767
     28 C54          8.6870     1.8920     0.4640 c3         1 DS2      -0.084767
     29 C58          8.2060    -0.4840    -0.2020 c3         1 DS2      -0.084767
     30 O62         -5.5320     1.3210     0.1390 os         1 DS2      -0.293100
     31 C63         -6.8120     0.9520     0.7060 c3         1 DS2       0.000600
     32 C64         -7.8330     2.1280     0.7370 c          1 DS2       0.728000
     33 H3          -1.2740     0.3320    -1.1310 ha         1 DS2       0.102000
     34 H5          -3.6600    -2.8260     0.6310 ha         1 DS2       0.094000
     35 H6          -5.5230    -1.2930     0.8690 ha         1 DS2       0.121000
     36 H12         -1.9660    -4.1770     0.3890 hc         1 DS2       0.031200
     37 H12A        -0.2280    -4.1880     0.3720 hc         1 DS2       0.031200
     38 H13         -0.4460    -3.7240    -2.0010 hc         1 DS2       0.031200
     39 H13A        -2.1630    -3.4580    -1.9280 hc         1 DS2       0.031200
     40 H14         -1.0900    -2.5010    -3.9890 hc         1 DS2       0.033867
     41 H14A        -1.9940    -1.2930    -3.0680 hc         1 DS2       0.033867
     42 H14B        -0.2180    -1.3260    -2.9880 hc         1 DS2       0.033867
     43 H20         -1.2020    -4.1210     2.6860 hc         1 DS2       0.033867
     44 H20A        -0.0820    -2.7890     2.3820 hc         1 DS2       0.033867
     45 H20B        -1.8360    -2.4960     2.3740 hc         1 DS2       0.033867
     46 H26         -0.4790    -0.3510     1.4260 ha         1 DS2       0.132000
     47 H29          3.5450    -1.5610    -1.2290 ha         1 DS2       0.104000
     48 H30          1.4530    -2.7120    -1.6490 ha         1 DS2       0.107000
     49 H34         -3.2890     3.0170    -0.2030 hc         1 DS2       0.040367
     50 H34A        -2.1250     2.5050    -1.4320 hc         1 DS2       0.040367
     51 H34B        -3.8510     2.5370    -1.8140 hc         1 DS2       0.040367
     52 H38          2.4050     0.8710     2.9370 hc         1 DS2       0.041700
     53 H38A         1.9520     2.1040     1.7460 hc         1 DS2       0.041700
     54 H38B         0.7010     1.2630     2.6710 hc         1 DS2       0.041700
     55 H43          5.4500    -0.9250     0.0460 h1         1 DS2       0.034700
     56 H43A         5.0280     0.3050    -1.1730 h1         1 DS2       0.034700
     57 H44          6.4270     0.7400     1.5090 h1         1 DS2       0.084700
     58 HO47         4.8150     2.3360     0.6670 ho         1 DS2       0.437000
     59 H50          7.1830     2.4320    -1.8440 hc         1 DS2       0.035367
     60 H50A         8.5550     1.3810    -2.2270 hc         1 DS2       0.035367
     61 H50B         6.9090     0.7450    -2.3250 hc         1 DS2       0.035367
     62 H54          8.7730     1.6250     1.5240 hc         1 DS2       0.035367
     63 H54A         9.6830     1.8030     0.0130 hc         1 DS2       0.035367
     64 H54B         8.3910     2.9470     0.4030 hc         1 DS2       0.035367
     65 H58          7.5780    -1.1730    -0.7780 hc         1 DS2       0.035367
     66 H58A         9.2190    -0.5400    -0.6200 hc         1 DS2       0.035367
     67 H58B         8.2500    -0.8460     0.8330 hc         1 DS2       0.035367
     68 H63         -7.2620     0.1380     0.1240 h1         1 DS2       0.016700
     69 H63A        -6.6800     0.6020     1.7380 h1         1 DS2       0.016700
@<TRIPOS>BOND
     1     1     3 ar  
     2     1     8 ar  
     3     1    30 1   
     4     2    32 1   
     5     3     5 ar  
     6     3    20 1   
     7     4    32 1   
     8     5     6 ar  
     9     5    33 1   
    10     6     7 ar  
    11     6     9 1   
    12     7     8 ar  
    13     7    34 1   
    14     8    35 1   
    15     9    10 1   
    16     9    11 1   
    17     9    12 1   
    18    10    15 ar  
    19    10    19 ar  
    20    11    14 1   
    21    11    36 1   
    22    11    37 1   
    23    12    13 1   
    24    12    38 1   
    25    12    39 1   
    26    13    40 1   
    27    13    41 1   
    28    13    42 1   
    29    14    43 1   
    30    14    44 1   
    31    14    45 1   
    32    15    16 ar  
    33    15    46 1   
    34    16    17 ar  
    35    16    21 1   
    36    17    18 ar  
    37    17    22 1   
    38    18    19 ar  
    39    18    47 1   
    40    19    48 1   
    41    20    49 1   
    42    20    50 1   
    43    20    51 1   
    44    21    52 1   
    45    21    53 1   
    46    21    54 1   
    47    22    23 1   
    48    23    24 1   
    49    23    55 1   
    50    23    56 1   
    51    24    25 1   
    52    24    26 1   
    53    24    57 1   
    54    25    58 1   
    55    26    27 1   
    56    26    28 1   
    57    26    29 1   
    58    27    59 1   
    59    27    60 1   
    60    27    61 1   
    61    28    62 1   
    62    28    63 1   
    63    28    64 1   
    64    29    65 1   
    65    29    66 1   
    66    29    67 1   
    67    30    31 1   
    68    31    32 1   
    69    31    68 1   
    70    31    69 1   
@<TRIPOS>SUBSTRUCTURE
     1 DS2         1 TEMP              0 ****  ****    0 ROOT
