@<TRIPOS>MOLECULE
DS2
   69    70     1     0     0
SMALL
bcc


@<TRIPOS>ATOM
      1 C1          -4.5550     0.3080     0.1400 ca         1 DS2       0.172100
      2 O1          -8.9850     1.3140     1.3030 o          1 DS2      -0.818800
      3 C2          -3.4110     0.8600    -0.4610 ca         1 DS2      -0.125300
      4 O2          -7.6100     2.8500     0.4390 o          1 DS2      -0.818800
      5 C3          -2.2900     0.0600    -0.6100 ca         1 DS2      -0.098000
      6 C4          -2.2350    -1.2720    -0.1870 ca         1 DS2      -0.146300
      7 C5          -3.3840    -1.7850     0.3980 ca         1 DS2      -0.093000
      8 C6          -4.5310    -1.0140     0.5630 ca         1 DS2      -0.237000
      9 C10         -1.0090    -2.1370    -0.4680 c3         1 DS2       0.073600
     10 C11          0.2940    -1.3590    -0.2920 ca         1 DS2      -0.081300
     11 C12         -0.9280    -3.3710     0.4670 c3         1 DS2      -0.062900
     12 C13         -1.1670    -2.7110    -1.8990 c3         1 DS2      -0.062900
     13 C14         -1.2030    -1.7120    -3.0460 c3         1 DS2      -0.087600
     14 C20         -0.7640    -3.0980     1.9550 c3         1 DS2      -0.087600
     15 C26          0.4320    -0.3930     0.7080 ca         1 DS2      -0.084000
     16 C27          1.6220     0.2670     0.9710 ca         1 DS2      -0.106300
     17 C28          2.7490    -0.0570     0.2010 ca         1 DS2       0.126100
     18 C29          2.6470    -1.0200    -0.7940 ca         1 DS2      -0.225000
     19 C30          1.4320    -1.6570    -1.0290 ca         1 DS2      -0.102000
     20 C34         -3.4160     2.2850    -0.9290 c3         1 DS2      -0.028800
     21 C38          1.7130     1.2970     2.0580 c3         1 DS2      -0.033800
     22 O42          3.8810     0.6130     0.5000 os         1 DS2      -0.313900
     23 C43          5.0720     0.2740    -0.1820 c3         1 DS2       0.109400
     24 C44          6.1840     1.1550     0.3690 c3         1 DS2       0.150100
     25 O47          5.8970     2.5160     0.1350 oh         1 DS2      -0.577800
     26 C48          7.5930     0.7470    -0.1220 c3         1 DS2      -0.076000
     27 C50          7.7070     0.8330    -1.6460 c3         1 DS2      -0.084767
     28 C54          8.6190     1.6860     0.5180 c3         1 DS2      -0.084767
     29 C58          7.9100    -0.6810     0.3300 c3         1 DS2      -0.084767
     30 O62         -5.6110     1.1330     0.2610 os         1 DS2      -0.269900
     31 C63         -6.8090     0.6280     0.8140 c3         1 DS2      -0.022600
     32 C64         -7.8960     1.7150     0.8470 c          1 DS2       0.938600
     33 H3          -1.4180     0.5010    -1.0770 ha         1 DS2       0.120000
     34 H5          -3.4190    -2.8100     0.7430 ha         1 DS2       0.112000
     35 H6          -5.3950    -1.4700     1.0290 ha         1 DS2       0.139000
     36 H12         -1.8100    -3.9980     0.3060 hc         1 DS2       0.031200
     37 H12A        -0.0830    -3.9740     0.1230 hc         1 DS2       0.031200
     38 H13         -0.3680    -3.4370    -2.0760 hc         1 DS2       0.031200
     39 H13A        -2.0900    -3.2970    -1.9080 hc         1 DS2       0.031200
     40 H14         -1.2260    -2.2400    -4.0000 hc         1 DS2       0.033867
     41 H14A        -2.0860    -1.0750    -3.0040 hc         1 DS2       0.033867
     42 H14B        -0.3260    -1.0640    -3.0520 hc         1 DS2       0.033867
     43 H20         -0.8190    -4.0330     2.5140 hc         1 DS2       0.033867
     44 H20A         0.1990    -2.6410     2.1790 hc         1 DS2       0.033867
     45 H20B        -1.5420    -2.4400     2.3430 hc         1 DS2       0.033867
     46 H26         -0.4250    -0.1390     1.3210 ha         1 DS2       0.150000
     47 H29          3.4980    -1.2940    -1.4040 ha         1 DS2       0.122000
     48 H30          1.4050    -2.4050    -1.8100 ha         1 DS2       0.125000
     49 H34         -3.6160     2.9790    -0.1110 hc         1 DS2       0.040367
     50 H34A        -2.4530     2.5530    -1.3620 hc         1 DS2       0.040367
     51 H34B        -4.1830     2.4620    -1.6860 hc         1 DS2       0.040367
     52 H38          2.4480     1.0240     2.8170 hc         1 DS2       0.041700
     53 H38A         2.0090     2.2730     1.6690 hc         1 DS2       0.041700
     54 H38B         0.7510     1.4150     2.5550 hc         1 DS2       0.041700
     55 H43          5.3030    -0.7840    -0.0290 h1         1 DS2       0.034700
     56 H43A         4.9540     0.4320    -1.2630 h1         1 DS2       0.034700
     57 H44          6.1830     1.0440     1.4610 h1         1 DS2       0.084700
     58 HO47         5.8700     2.6690    -0.8150 ho         1 DS2       0.398000
     59 H50          7.4890     1.8340    -2.0260 hc         1 DS2       0.035367
     60 H50A         8.7240     0.5940    -1.9620 hc         1 DS2       0.035367
     61 H50B         7.0400     0.1310    -2.1510 hc         1 DS2       0.035367
     62 H54          8.5730     1.6320     1.6080 hc         1 DS2       0.035367
     63 H54A         9.6290     1.4050     0.2150 hc         1 DS2       0.035367
     64 H54B         8.4640     2.7250     0.2280 hc         1 DS2       0.035367
     65 H58          7.3090    -1.4310    -0.1860 hc         1 DS2       0.035367
     66 H58A         8.9560    -0.9160     0.1270 hc         1 DS2       0.035367
     67 H58B         7.7480    -0.8030     1.4040 hc         1 DS2       0.035367
     68 H63         -7.1750    -0.2260     0.2300 h1         1 DS2       0.016700
     69 H63A        -6.6440     0.2640     1.8360 h1         1 DS2       0.016700
@<TRIPOS>BOND
     1     1     3 ar  
     2     1     8 ar  
     3     1    30 1   
     4     2    32 1   
     5     3     5 ar  
     6     3    20 1   
     7     4    32 1   
     8     5     6 ar  
     9     5    33 1   
    10     6     7 ar  
    11     6     9 1   
    12     7     8 ar  
    13     7    34 1   
    14     8    35 1   
    15     9    10 1   
    16     9    11 1   
    17     9    12 1   
    18    10    15 ar  
    19    10    19 ar  
    20    11    14 1   
    21    11    36 1   
    22    11    37 1   
    23    12    13 1   
    24    12    38 1   
    25    12    39 1   
    26    13    40 1   
    27    13    41 1   
    28    13    42 1   
    29    14    43 1   
    30    14    44 1   
    31    14    45 1   
    32    15    16 ar  
    33    15    46 1   
    34    16    17 ar  
    35    16    21 1   
    36    17    18 ar  
    37    17    22 1   
    38    18    19 ar  
    39    18    47 1   
    40    19    48 1   
    41    20    49 1   
    42    20    50 1   
    43    20    51 1   
    44    21    52 1   
    45    21    53 1   
    46    21    54 1   
    47    22    23 1   
    48    23    24 1   
    49    23    55 1   
    50    23    56 1   
    51    24    25 1   
    52    24    26 1   
    53    24    57 1   
    54    25    58 1   
    55    26    27 1   
    56    26    28 1   
    57    26    29 1   
    58    27    59 1   
    59    27    60 1   
    60    27    61 1   
    61    28    62 1   
    62    28    63 1   
    63    28    64 1   
    64    29    65 1   
    65    29    66 1   
    66    29    67 1   
    67    30    31 1   
    68    31    32 1   
    69    31    68 1   
    70    31    69 1   
@<TRIPOS>SUBSTRUCTURE
     1 DS2         1 TEMP              0 ****  ****    0 ROOT
