@<TRIPOS>MOLECULE
DS3
   78    79     1     0     0
SMALL
abcg2


@<TRIPOS>ATOM
      1 C1          -3.3730    -0.0320    -0.3070 ca         1 DS3       0.161100
      2 O1         -10.7300     0.3530     1.4660 o          1 DS3      -0.741500
      3 C2          -2.2100     0.5480    -0.8360 ca         1 DS3      -0.118300
      4 O2         -11.4110     2.4350     1.0730 o          1 DS3      -0.741500
      5 C3          -1.0500    -0.2100    -0.8660 ca         1 DS3      -0.077000
      6 C4          -0.9780    -1.5230    -0.3890 ca         1 DS3      -0.120300
      7 C5          -2.1510    -2.0650     0.1180 ca         1 DS3      -0.075000
      8 C6          -3.3360    -1.3380     0.1640 ca         1 DS3      -0.203000
      9 C10          0.3020    -2.3440    -0.5330 c3         1 DS3       0.070600
     10 C11          1.5520    -1.4950    -0.3120 ca         1 DS3      -0.089300
     11 C12          0.3620    -3.5180     0.4760 c3         1 DS3      -0.064400
     12 C13          0.2700    -2.9990    -1.9370 c3         1 DS3      -0.064400
     13 C14          0.2480    -2.0660    -3.1390 c3         1 DS3      -0.088600
     14 C20          0.3890    -3.1550     1.9540 c3         1 DS3      -0.088600
     15 C26          1.5780    -0.4930     0.6640 ca         1 DS3      -0.069000
     16 C27          2.7100     0.2460     0.9660 ca         1 DS3      -0.105300
     17 C28          3.8920    -0.0250     0.2610 ca         1 DS3       0.132100
     18 C29          3.9020    -1.0220    -0.7050 ca         1 DS3      -0.206000
     19 C30          2.7440    -1.7440    -0.9780 ca         1 DS3      -0.080000
     20 C34         -2.2320     1.9560    -1.3520 c3         1 DS3      -0.030800
     21 C38          2.6860     1.3080     2.0260 c3         1 DS3      -0.033800
     22 O42          4.9600     0.7290     0.5900 os         1 DS3      -0.336100
     23 C43          6.1820     0.5110    -0.0890 c3         1 DS3       0.130600
     24 C44          7.1960     1.5070     0.4570 c3         1 DS3       0.173300
     25 O47          6.7720     2.8280     0.2050 oh         1 DS3      -0.640000
     26 C48          8.6400     1.2350    -0.0250 c3         1 DS3      -0.077000
     27 C50          8.7450     1.2820    -1.5520 c3         1 DS3      -0.085100
     28 C54          9.5630     2.2950     0.5810 c3         1 DS3      -0.085100
     29 C58          9.1050    -0.1380     0.4730 c3         1 DS3      -0.085100
     30 O62         -4.4710     0.7510    -0.2960 os         1 DS3      -0.350100
     31 C63         -5.6880     0.2300     0.2130 c3         1 DS3       0.158600
     32 C64         -6.7440     1.3120     0.1220 c3         1 DS3      -0.087400
     33 C65         -8.0950     0.8290     0.6380 c3         1 DS3      -0.052400
     34 C66         -9.1560     1.9150     0.5710 c3         1 DS3      -0.205400
     35 C67        -10.5530     1.5260     1.0850 c          1 DS3       0.717000
     36 H3          -0.1610     0.2510    -1.2800 ha         1 DS3       0.111000
     37 H5          -2.1740    -3.0790     0.4960 ha         1 DS3       0.105000
     38 H6          -4.2180    -1.8110     0.5730 ha         1 DS3       0.123000
     39 H12         -0.4760    -4.1940     0.2810 hc         1 DS3       0.034700
     40 H12A         1.2570    -4.1010     0.2400 hc         1 DS3       0.034700
     41 H13          1.1190    -3.6840    -2.0260 hc         1 DS3       0.034700
     42 H13A        -0.6180    -3.6380    -1.9690 hc         1 DS3       0.034700
     43 H14         -0.6630    -1.4700    -3.1740 hc         1 DS3       0.034700
     44 H14A         1.0940    -1.3790    -3.1410 hc         1 DS3       0.034700
     45 H14B         0.2950    -2.6460    -4.0620 hc         1 DS3       0.034700
     46 H20          1.3260    -2.6750     2.2340 hc         1 DS3       0.034700
     47 H20A        -0.4220    -2.4810     2.2310 hc         1 DS3       0.034700
     48 H20B         0.2900    -4.0550     2.5620 hc         1 DS3       0.034700
     49 H26          0.6740    -0.2740     1.2200 ha         1 DS3       0.127000
     50 H29          4.8000    -1.2590    -1.2610 ha         1 DS3       0.107000
     51 H30          2.8060    -2.5170    -1.7330 ha         1 DS3       0.108000
     52 H34         -2.5190     2.6670    -0.5760 hc         1 DS3       0.040033
     53 H34A        -1.2490     2.2480    -1.7190 hc         1 DS3       0.040033
     54 H34B        -2.9430     2.0780    -2.1710 hc         1 DS3       0.040033
     55 H38          3.3910     1.0930     2.8300 hc         1 DS3       0.042700
     56 H38A         2.9530     2.2880     1.6250 hc         1 DS3       0.042700
     57 H38B         1.6940     1.3890     2.4680 hc         1 DS3       0.042700
     58 H43          6.5230    -0.5160     0.0690 h1         1 DS3       0.035700
     59 H43A         6.0460     0.6510    -1.1690 h1         1 DS3       0.035700
     60 H44          7.2020     1.4090     1.5500 h1         1 DS3       0.085700
     61 HO47         6.7410     2.9690    -0.7470 ho         1 DS3       0.437000
     62 H50          8.4420     2.2490    -1.9620 hc         1 DS3       0.036033
     63 H50A         9.7780     1.1200    -1.8650 hc         1 DS3       0.036033
     64 H50B         8.1390     0.5100    -2.0310 hc         1 DS3       0.036033
     65 H54          9.5100     2.2840     1.6720 hc         1 DS3       0.036033
     66 H54A        10.5990     2.1000     0.2990 hc         1 DS3       0.036033
     67 H54B         9.3120     3.3000     0.2430 hc         1 DS3       0.036033
     68 H58          8.5810    -0.9640    -0.0110 hc         1 DS3       0.036033
     69 H58A        10.1680    -0.2680     0.2670 hc         1 DS3       0.036033
     70 H58B         8.9640    -0.2380     1.5520 hc         1 DS3       0.036033
     71 H63         -5.9960    -0.6510    -0.3630 h1         1 DS3       0.031700
     72 H63A        -5.5610    -0.0880     1.2540 h1         1 DS3       0.031700
     73 H64         -6.4190     2.1850     0.6960 hc         1 DS3       0.042200
     74 H64A        -6.8410     1.6360    -0.9190 hc         1 DS3       0.042200
     75 H65         -8.4170    -0.0410     0.0600 hc         1 DS3       0.040200
     76 H65A        -7.9870     0.4830     1.6710 hc         1 DS3       0.040200
     77 H66         -8.8180     2.7950     1.1310 hc         1 DS3       0.017700
     78 H66A        -9.2600     2.2650    -0.4630 hc         1 DS3       0.017700
@<TRIPOS>BOND
     1     1     3 ar  
     2     1     8 ar  
     3     1    30 1   
     4     2    35 1   
     5     3     5 ar  
     6     3    20 1   
     7     4    35 1   
     8     5     6 ar  
     9     5    36 1   
    10     6     7 ar  
    11     6     9 1   
    12     7     8 ar  
    13     7    37 1   
    14     8    38 1   
    15     9    10 1   
    16     9    11 1   
    17     9    12 1   
    18    10    15 ar  
    19    10    19 ar  
    20    11    14 1   
    21    11    39 1   
    22    11    40 1   
    23    12    13 1   
    24    12    41 1   
    25    12    42 1   
    26    13    43 1   
    27    13    44 1   
    28    13    45 1   
    29    14    46 1   
    30    14    47 1   
    31    14    48 1   
    32    15    16 ar  
    33    15    49 1   
    34    16    17 ar  
    35    16    21 1   
    36    17    18 ar  
    37    17    22 1   
    38    18    19 ar  
    39    18    50 1   
    40    19    51 1   
    41    20    52 1   
    42    20    53 1   
    43    20    54 1   
    44    21    55 1   
    45    21    56 1   
    46    21    57 1   
    47    22    23 1   
    48    23    24 1   
    49    23    58 1   
    50    23    59 1   
    51    24    25 1   
    52    24    26 1   
    53    24    60 1   
    54    25    61 1   
    55    26    27 1   
    56    26    28 1   
    57    26    29 1   
    58    27    62 1   
    59    27    63 1   
    60    27    64 1   
    61    28    65 1   
    62    28    66 1   
    63    28    67 1   
    64    29    68 1   
    65    29    69 1   
    66    29    70 1   
    67    30    31 1   
    68    31    32 1   
    69    31    71 1   
    70    31    72 1   
    71    32    33 1   
    72    32    73 1   
    73    32    74 1   
    74    33    34 1   
    75    33    75 1   
    76    33    76 1   
    77    34    35 1   
    78    34    77 1   
    79    34    78 1   
@<TRIPOS>SUBSTRUCTURE
     1 DS3         1 TEMP              0 ****  ****    0 ROOT
