@<TRIPOS>MOLECULE
DS3
   78    79     1     0     0
SMALL
No Charge or Current Charge


@<TRIPOS>ATOM
      1 C1          -3.3550    -0.0830    -0.3430 ca         1 DS3       0.161100
      2 O1         -11.3150     1.3170     0.2350 o          1 DS3      -0.741500
      3 C2          -2.1580     0.4330    -0.8780 ca         1 DS3      -0.118300
      4 O2         -10.7560     2.0320     2.1880 o          1 DS3      -0.741500
      5 C3          -1.0040    -0.3730    -0.9100 ca         1 DS3      -0.077000
      6 C4          -1.0050    -1.6930    -0.3990 ca         1 DS3      -0.120300
      7 C5          -2.2250    -2.2010     0.1060 ca         1 DS3      -0.075000
      8 C6          -3.3820    -1.4060     0.1420 ca         1 DS3      -0.203000
      9 C10          0.2890    -2.5630    -0.4740 c3         1 DS3       0.070600
     10 C11          1.5670    -1.7050    -0.2220 ca         1 DS3      -0.089300
     11 C12          0.3160    -3.7210     0.5860 c3         1 DS3      -0.064400
     12 C13          0.2790    -3.2530    -1.8850 c3         1 DS3      -0.064400
     13 C14          0.3340    -2.3200    -3.1200 c3         1 DS3      -0.088600
     14 C20          0.2530    -3.3060     2.0760 c3         1 DS3      -0.088600
     15 C26          1.5450    -0.6600     0.7340 ca         1 DS3      -0.069000
     16 C27          2.6850     0.1210     1.0040 ca         1 DS3      -0.105300
     17 C28          3.8900    -0.1470     0.3260 ca         1 DS3       0.132100
     18 C29          3.9400    -1.2030    -0.6060 ca         1 DS3      -0.206000
     19 C30          2.7960    -1.9750    -0.8690 ca         1 DS3      -0.080000
     20 C34         -2.1040     1.8550    -1.4270 c3         1 DS3      -0.030800
     21 C38          2.6070     1.2450     2.0320 c3         1 DS3      -0.033800
     22 O42          4.9960     0.6340     0.6080 os         1 DS3      -0.336100
     23 C43          6.2720     0.4250    -0.0300 c3         1 DS3       0.130600
     24 C44          7.2710     1.4770     0.5330 c3         1 DS3       0.173300
     25 O47          6.6690     2.7810     0.4360 oh         1 DS3      -0.640000
     26 C48          8.7000     1.4730    -0.1290 c3         1 DS3      -0.077000
     27 C50          8.6410     1.8230    -1.6450 c3         1 DS3      -0.085100
     28 C54          9.6110     2.5130     0.5860 c3         1 DS3      -0.085100
     29 C58          9.3600     0.0740     0.0320 c3         1 DS3      -0.085100
     30 O62         -4.4750     0.7290    -0.3240 os         1 DS3      -0.350100
     31 C63         -5.7370     0.2870     0.2010 c3         1 DS3       0.158600
     32 C64         -6.7360     1.4520     0.0600 c3         1 DS3      -0.087400
     33 C65         -8.1450     1.1050     0.5910 c3         1 DS3      -0.052400
     34 C66         -9.1530     2.2720     0.4530 c3         1 DS3      -0.205400
     35 C67        -10.5290     1.8540     1.0010 c          1 DS3       0.717000
     36 H3          -0.0950     0.0360    -1.3440 ha         1 DS3       0.111000
     37 H5          -2.3010    -3.2190     0.4750 ha         1 DS3       0.105000
     38 H6          -4.2920    -1.8380     0.5460 ha         1 DS3       0.123000
     39 H12         -0.4930    -4.4340     0.3860 hc         1 DS3       0.034700
     40 H12A         1.2400    -4.2970     0.4480 hc         1 DS3       0.034700
     41 H13          1.0990    -3.9770    -1.9560 hc         1 DS3       0.034700
     42 H13A        -0.6360    -3.8540    -1.9720 hc         1 DS3       0.034700
     43 H14         -0.5920    -1.7430    -3.2210 hc         1 DS3       0.034700
     44 H14A         1.1750    -1.6200    -3.0630 hc         1 DS3       0.034700
     45 H14B         0.4510    -2.9150    -4.0340 hc         1 DS3       0.034700
     46 H20          1.1710    -2.7910     2.3820 hc         1 DS3       0.034700
     47 H20A        -0.5990    -2.6470     2.2780 hc         1 DS3       0.034700
     48 H20B         0.1490    -4.1950     2.7090 hc         1 DS3       0.034700
     49 H26          0.6280    -0.4510     1.2800 ha         1 DS3       0.127000
     50 H29          4.8560    -1.4450    -1.1350 ha         1 DS3       0.107000
     51 H30          2.8890    -2.7880    -1.5820 ha         1 DS3       0.108000
     52 H34         -2.3660     2.5850    -0.6530 hc         1 DS3       0.040033
     53 H34A        -1.1040     2.1130    -1.7980 hc         1 DS3       0.040033
     54 H34B        -2.8070     1.9810    -2.2590 hc         1 DS3       0.040033
     55 H38          3.3280     1.0860     2.8420 hc         1 DS3       0.042700
     56 H38A         2.8280     2.2140     1.5700 hc         1 DS3       0.042700
     57 H38B         1.6120     1.3160     2.4860 hc         1 DS3       0.042700
     58 H43          6.6410    -0.5860     0.1830 h1         1 DS3       0.035700
     59 H43A         6.1760     0.5410    -1.1170 h1         1 DS3       0.035700
     60 H44          7.4070     1.2270     1.5960 h1         1 DS3       0.085700
     61 HO47         5.7100     2.6370     0.6000 ho         1 DS3       0.437000
     62 H50          8.1790     2.8040    -1.8100 hc         1 DS3       0.036033
     63 H50A         9.6490     1.8550    -2.0760 hc         1 DS3       0.036033
     64 H50B         8.0680     1.0780    -2.2090 hc         1 DS3       0.036033
     65 H54          9.6680     2.3090     1.6620 hc         1 DS3       0.036033
     66 H54A        10.6310     2.4860     0.1840 hc         1 DS3       0.036033
     67 H54B         9.2330     3.5340     0.4550 hc         1 DS3       0.036033
     68 H58          8.8190    -0.6950    -0.5310 hc         1 DS3       0.036033
     69 H58A        10.3930     0.0830    -0.3380 hc         1 DS3       0.036033
     70 H58B         9.3850    -0.2300     1.0860 hc         1 DS3       0.036033
     71 H63         -6.1070    -0.5820    -0.3600 h1         1 DS3       0.031700
     72 H63A        -5.6420     0.0110     1.2590 h1         1 DS3       0.031700
     73 H64         -6.3480     2.3220     0.6040 hc         1 DS3       0.042200
     74 H64A        -6.8070     1.7360    -0.9970 hc         1 DS3       0.042200
     75 H65         -8.5280     0.2310     0.0490 hc         1 DS3       0.040200
     76 H65A        -8.0690     0.8160     1.6480 hc         1 DS3       0.040200
     77 H66         -8.7390     3.0980     1.0450 hc         1 DS3       0.017700
     78 H66A        -9.2170     2.4880    -0.6210 hc         1 DS3       0.017700
@<TRIPOS>BOND
     1     1     3 ar  
     2     1     8 ar  
     3     1    30 1   
     4     2    35 1   
     5     3     5 ar  
     6     3    20 1   
     7     4    35 1   
     8     5     6 ar  
     9     5    36 1   
    10     6     7 ar  
    11     6     9 1   
    12     7     8 ar  
    13     7    37 1   
    14     8    38 1   
    15     9    10 1   
    16     9    11 1   
    17     9    12 1   
    18    10    15 ar  
    19    10    19 ar  
    20    11    14 1   
    21    11    39 1   
    22    11    40 1   
    23    12    13 1   
    24    12    41 1   
    25    12    42 1   
    26    13    43 1   
    27    13    44 1   
    28    13    45 1   
    29    14    46 1   
    30    14    47 1   
    31    14    48 1   
    32    15    16 ar  
    33    15    49 1   
    34    16    17 ar  
    35    16    21 1   
    36    17    18 ar  
    37    17    22 1   
    38    18    19 ar  
    39    18    50 1   
    40    19    51 1   
    41    20    52 1   
    42    20    53 1   
    43    20    54 1   
    44    21    55 1   
    45    21    56 1   
    46    21    57 1   
    47    22    23 1   
    48    23    24 1   
    49    23    58 1   
    50    23    59 1   
    51    24    25 1   
    52    24    26 1   
    53    24    60 1   
    54    25    61 1   
    55    26    27 1   
    56    26    28 1   
    57    26    29 1   
    58    27    62 1   
    59    27    63 1   
    60    27    64 1   
    61    28    65 1   
    62    28    66 1   
    63    28    67 1   
    64    29    68 1   
    65    29    69 1   
    66    29    70 1   
    67    30    31 1   
    68    31    32 1   
    69    31    71 1   
    70    31    72 1   
    71    32    33 1   
    72    32    73 1   
    73    32    74 1   
    74    33    34 1   
    75    33    75 1   
    76    33    76 1   
    77    34    35 1   
    78    34    77 1   
    79    34    78 1   
@<TRIPOS>SUBSTRUCTURE
     1 DS3         1 TEMP              0 ****  ****    0 ROOT
