@<TRIPOS>MOLECULE
DS5
   71    72     1     0     0
SMALL
No Charge or Current Charge


@<TRIPOS>ATOM
      1 C1          -4.2000     1.4130    -0.2480 ca         1 DS5       0.160100
      2 O1           7.5240    -0.4470     0.1040 oh         1 DS5      -0.619000
      3 C2          -4.0840     2.7340    -0.7230 ca         1 DS5      -0.114300
      4 O2          -5.3660     0.7160    -0.5070 os         1 DS5      -0.330100
      5 C3          -2.9080     3.4700    -0.4730 ca         1 DS5      -0.078000
      6 C4          -1.8200     2.9040     0.2350 ca         1 DS5      -0.126300
      7 C5          -1.9710     1.5870     0.7280 ca         1 DS5      -0.073000
      8 C6          -3.1380     0.8470     0.4850 ca         1 DS5      -0.202000
      9 C7          -0.5200     3.7120     0.5420 c3         1 DS5       0.059600
     10 C8           0.7420     2.7940     0.5170 ca         1 DS5      -0.023300
     11 C9           0.8430     1.7490    -0.4330 ca         1 DS5      -0.112000
     12 C10          1.9750     0.9140    -0.5040 ca         1 DS5      -0.031300
     13 C11          2.0140    -0.2040    -1.5450 c3         1 DS5      -0.056800
     14 C12          3.0510     1.1330     0.3840 ca         1 DS5      -0.031000
     15 C13          4.2280     0.3100     0.3500 cg         1 DS5       0.047000
     16 C14          5.2140    -0.3990     0.3090 c1         1 DS5      -0.274100
     17 C15          6.3750    -1.3070     0.2320 c3         1 DS5       0.172100
     18 C16          6.2630    -2.2240    -1.0530 c3         1 DS5       0.308500
     19 C17          6.5010    -2.1500     1.5650 c3         1 DS5       0.308500
     20 C18          2.9810     2.1840     1.3130 ca         1 DS5      -0.073000
     21 C20         -0.2490     4.8630    -0.4920 c3         1 DS5      -0.065900
     22 C26         -6.9820    -1.1100    -0.5130 c3         1 DS5       0.158300
     23 C27         -7.3120    -2.5300     0.0190 c3         1 DS5      -0.083400
     24 C28         -8.7600    -3.0110    -0.2760 c3         1 DS5      -0.205400
     25 C29         -9.0100    -4.3820     0.3740 c          1 DS5       0.716000
     26 C22         -0.7480     4.4080     1.9310 c3         1 DS5      -0.065900
     27 C21         -0.0720     4.4450    -1.9720 c3         1 DS5      -0.090100
     28 C23         -0.9580     3.4790     3.1520 c3         1 DS5      -0.090100
     29 C19          1.8470     3.0090     1.3740 ca         1 DS5      -0.125000
     30 C24         -5.2270     3.3770    -1.5030 c3         1 DS5      -0.031800
     31 C25         -5.5730    -0.6380    -0.0590 c3         1 DS5       0.119600
     32 F1           7.3430    -3.0290    -1.1950 f          1 DS5      -0.096833
     33 F2           5.1660    -3.0200    -1.0140 f          1 DS5      -0.096833
     34 F3           6.1740    -1.4790    -2.1820 f          1 DS5      -0.096833
     35 F4           5.4240    -2.9470     1.7640 f          1 DS5      -0.096833
     36 F5           7.5980    -2.9450     1.5570 f          1 DS5      -0.096833
     37 F6           6.6060    -1.3420     2.6500 f          1 DS5      -0.096833
     38 O3          -7.0790    -1.1000    -1.9510 oh         1 DS5      -0.652000
     39 O5          -8.7380    -5.3840    -0.2700 o          1 DS5      -0.740000
     40 O4          -9.4210    -4.4080     1.5240 o          1 DS5      -0.740000
     41 H1           7.2030     0.3760    -0.3250 ho         1 DS5       0.483000
     42 H2          -2.8600     4.4910    -0.8370 ha         1 DS5       0.105000
     43 H3          -1.1780     1.1260     1.3130 ha         1 DS5       0.110000
     44 H4          -3.2000    -0.1630     0.8790 ha         1 DS5       0.125000
     45 H5           0.0280     1.5840    -1.1340 ha         1 DS5       0.133000
     46 H6           2.8550    -0.0710    -2.2360 hc         1 DS5       0.052033
     47 H7           2.1230    -1.1850    -1.0670 hc         1 DS5       0.052033
     48 H8           1.0980    -0.2360    -2.1470 hc         1 DS5       0.052033
     49 H9           3.8120     2.3680     1.9910 ha         1 DS5       0.115000
     50 H10         -1.0430     5.6170    -0.4330 hc         1 DS5       0.037200
     51 H11          0.6640     5.3920    -0.1910 hc         1 DS5       0.037200
     52 H12         -7.7160    -0.4130    -0.0850 h1         1 DS5       0.075700
     53 H13         -6.5970    -3.2520    -0.3980 hc         1 DS5       0.044700
     54 H14         -7.1600    -2.5360     1.1060 hc         1 DS5       0.044700
     55 H15         -9.4220    -2.2550     0.1640 hc         1 DS5       0.025700
     56 H16         -8.8430    -3.0890    -1.3670 hc         1 DS5       0.025700
     57 H17          0.0790     5.0930     2.1500 hc         1 DS5       0.037200
     58 H18         -1.6340     5.0520     1.8560 hc         1 DS5       0.037200
     59 H19         -0.9070     3.8290    -2.3230 hc         1 DS5       0.036867
     60 H20         -0.0180     5.3360    -2.6090 hc         1 DS5       0.036867
     61 H21          0.8580     3.8830    -2.1150 hc         1 DS5       0.036867
     62 H22         -0.9770     4.0710     4.0750 hc         1 DS5       0.036867
     63 H23         -1.9130     2.9460     3.0830 hc         1 DS5       0.036867
     64 H24         -0.1540     2.7400     3.2430 hc         1 DS5       0.036867
     65 H25          1.8500     3.8180     2.0980 ha         1 DS5       0.119000
     66 H26         -6.1370     3.4280    -0.8930 hc         1 DS5       0.042033
     67 H27         -4.9850     4.3990    -1.8190 hc         1 DS5       0.042033
     68 H28         -5.4600     2.8000    -2.4060 hc         1 DS5       0.042033
     69 H29         -4.8080    -1.3070    -0.4740 h1         1 DS5       0.036200
     70 H30         -5.5160    -0.6870     1.0370 h1         1 DS5       0.036200
     71 H31         -6.3770    -1.6950    -2.2900 ho         1 DS5       0.433000
@<TRIPOS>BOND
     1     1     3 ar  
     2     1     4 1   
     3     1     8 ar  
     4     2    17 1   
     5     2    41 1   
     6     3     5 ar  
     7     3    30 1   
     8     4    31 1   
     9     5     6 ar  
    10     5    42 1   
    11     6     7 ar  
    12     6     9 1   
    13     7     8 ar  
    14     7    43 1   
    15     8    44 1   
    16     9    10 1   
    17     9    21 1   
    18     9    26 1   
    19    10    11 ar  
    20    10    29 ar  
    21    11    12 ar  
    22    11    45 1   
    23    12    13 1   
    24    12    14 ar  
    25    13    46 1   
    26    13    47 1   
    27    13    48 1   
    28    14    15 1   
    29    14    20 ar  
    30    15    16 3   
    31    16    17 1   
    32    17    18 1   
    33    17    19 1   
    34    18    32 1   
    35    18    33 1   
    36    18    34 1   
    37    19    35 1   
    38    19    36 1   
    39    19    37 1   
    40    20    29 ar  
    41    20    49 1   
    42    21    27 1   
    43    21    50 1   
    44    21    51 1   
    45    22    23 1   
    46    22    31 1   
    47    22    38 1   
    48    22    52 1   
    49    23    24 1   
    50    23    53 1   
    51    23    54 1   
    52    24    25 1   
    53    24    55 1   
    54    24    56 1   
    55    25    39 1   
    56    25    40 1   
    57    26    28 1   
    58    26    57 1   
    59    26    58 1   
    60    27    59 1   
    61    27    60 1   
    62    27    61 1   
    63    28    62 1   
    64    28    63 1   
    65    28    64 1   
    66    29    65 1   
    67    30    66 1   
    68    30    67 1   
    69    30    68 1   
    70    31    69 1   
    71    31    70 1   
    72    38    71 1   
@<TRIPOS>SUBSTRUCTURE
     1 DS5         1 TEMP              0 ****  ****    0 ROOT
