@<TRIPOS>MOLECULE
DS5
   71    72     1     0     0
SMALL
abcg2


@<TRIPOS>ATOM
      1 C1          -4.1910     1.3060    -0.3250 ca         1 DS5       0.160100
      2 O1           7.5520    -0.5690     0.9280 oh         1 DS5      -0.619000
      3 C2          -4.0280     2.5930    -0.8540 ca         1 DS5      -0.114300
      4 O2          -5.3650     0.7010    -0.5920 os         1 DS5      -0.330100
      5 C3          -2.8400     3.2650    -0.6040 ca         1 DS5      -0.078000
      6 C4          -1.7950     2.7200     0.1440 ca         1 DS5      -0.126300
      7 C5          -1.9940     1.4420     0.6550 ca         1 DS5      -0.073000
      8 C6          -3.1690     0.7370     0.4280 ca         1 DS5      -0.202000
      9 C7          -0.5470     3.5260     0.4930 c3         1 DS5       0.059600
     10 C8           0.7020     2.6520     0.5270 ca         1 DS5      -0.023300
     11 C9           0.8640     1.6050    -0.3830 ca         1 DS5      -0.112000
     12 C10          2.0140     0.8320    -0.4480 ca         1 DS5      -0.031300
     13 C11          2.1330    -0.2870    -1.4370 c3         1 DS5      -0.056800
     14 C12          3.0580     1.1220     0.4450 ca         1 DS5      -0.031000
     15 C13          4.2470     0.3450     0.4170 cg         1 DS5       0.047000
     16 C14          5.2410    -0.3320     0.3760 c1         1 DS5      -0.274100
     17 C15          6.4550    -1.1330     0.2880 c3         1 DS5       0.172100
     18 C16          6.7920    -1.3210    -1.2160 c3         1 DS5       0.308500
     19 C17          6.2070    -2.4780     1.0140 c3         1 DS5       0.308500
     20 C18          2.9250     2.1750     1.3490 ca         1 DS5      -0.073000
     21 C20         -0.2620     4.6650    -0.5220 c3         1 DS5      -0.065900
     22 C26         -7.0250    -1.0010    -0.4310 c3         1 DS5       0.158300
     23 C27         -7.3800    -2.3160     0.2560 c3         1 DS5      -0.083400
     24 C28         -8.8050    -2.7700    -0.0080 c3         1 DS5      -0.205400
     25 C29         -9.2310    -4.0600     0.7140 c          1 DS5       0.716000
     26 C22         -0.8150     4.2300     1.8480 c3         1 DS5      -0.065900
     27 C21          0.0240     4.2610    -1.9620 c3         1 DS5      -0.090100
     28 C23         -1.0690     3.3370     3.0530 c3         1 DS5      -0.090100
     29 C19          1.7660     2.9290     1.3840 ca         1 DS5      -0.125000
     30 C24         -5.1190     3.2260    -1.6660 c3         1 DS5      -0.031800
     31 C25         -5.6190    -0.5760    -0.0410 c3         1 DS5       0.119600
     32 F1           7.8710    -2.0770    -1.3940 f          1 DS5      -0.096833
     33 F2           5.7860    -1.8690    -1.8920 f          1 DS5      -0.096833
     34 F3           7.0440    -0.1270    -1.7510 f          1 DS5      -0.096833
     35 F4           5.2030    -3.1540     0.4610 f          1 DS5      -0.096833
     36 F5           7.2850    -3.2560     1.0040 f          1 DS5      -0.096833
     37 F6           5.8910    -2.2400     2.2830 f          1 DS5      -0.096833
     38 O3          -7.1800    -1.0550    -1.8330 oh         1 DS5      -0.652000
     39 O5          -8.3850    -4.6410     1.4230 o          1 DS5      -0.740000
     40 O4         -10.4110    -4.4250     0.5250 o          1 DS5      -0.740000
     41 H1           7.5000     0.3940     0.8920 ho         1 DS5       0.483000
     42 H2          -2.7420     4.2630    -1.0160 ha         1 DS5       0.105000
     43 H3          -1.2250     0.9650     1.2480 ha         1 DS5       0.110000
     44 H4          -3.2680    -0.2540     0.8500 ha         1 DS5       0.125000
     45 H5           0.0620     1.3800    -1.0760 ha         1 DS5       0.133000
     46 H6           3.0310    -0.1910    -2.0490 hc         1 DS5       0.052033
     47 H7           2.1940    -1.2540    -0.9350 hc         1 DS5       0.052033
     48 H8           1.2720    -0.3110    -2.1030 hc         1 DS5       0.052033
     49 H9           3.7360     2.4020     2.0290 ha         1 DS5       0.115000
     50 H10         -1.1000     5.3670    -0.4960 hc         1 DS5       0.037200
     51 H11          0.5950     5.2230    -0.1360 hc         1 DS5       0.037200
     52 H12         -7.7210    -0.2270    -0.0890 h1         1 DS5       0.075700
     53 H13         -6.6720    -3.0910    -0.0600 hc         1 DS5       0.044700
     54 H14         -7.2270    -2.1940     1.3310 hc         1 DS5       0.044700
     55 H15         -9.5040    -1.9740     0.2760 hc         1 DS5       0.025700
     56 H16         -8.9630    -2.9170    -1.0810 hc         1 DS5       0.025700
     57 H17          0.0160     4.9070     2.0660 hc         1 DS5       0.037200
     58 H18         -1.6800     4.8830     1.7020 hc         1 DS5       0.037200
     59 H19         -0.7860     3.6750    -2.3970 hc         1 DS5       0.036867
     60 H20          0.1500     5.1520    -2.5780 hc         1 DS5       0.036867
     61 H21          0.9380     3.6740    -2.0440 hc         1 DS5       0.036867
     62 H22         -1.1260     3.9420     3.9580 hc         1 DS5       0.036867
     63 H23         -2.0080     2.7930     2.9660 hc         1 DS5       0.036867
     64 H24         -0.2760     2.6020     3.2010 hc         1 DS5       0.036867
     65 H25          1.7080     3.7440     2.0920 ha         1 DS5       0.119000
     66 H26         -6.0450     3.3200    -1.0970 hc         1 DS5       0.042033
     67 H27         -4.8270     4.2230    -1.9930 hc         1 DS5       0.042033
     68 H28         -5.3550     2.6420    -2.5580 hc         1 DS5       0.042033
     69 H29         -4.8880    -1.3100    -0.4070 h1         1 DS5       0.036200
     70 H30         -5.5380    -0.5480     1.0520 h1         1 DS5       0.036200
     71 H31         -6.6790    -1.8090    -2.1640 ho         1 DS5       0.433000
@<TRIPOS>BOND
     1     1     3 ar  
     2     1     4 1   
     3     1     8 ar  
     4     2    17 1   
     5     2    41 1   
     6     3     5 ar  
     7     3    30 1   
     8     4    31 1   
     9     5     6 ar  
    10     5    42 1   
    11     6     7 ar  
    12     6     9 1   
    13     7     8 ar  
    14     7    43 1   
    15     8    44 1   
    16     9    10 1   
    17     9    21 1   
    18     9    26 1   
    19    10    11 ar  
    20    10    29 ar  
    21    11    12 ar  
    22    11    45 1   
    23    12    13 1   
    24    12    14 ar  
    25    13    46 1   
    26    13    47 1   
    27    13    48 1   
    28    14    15 1   
    29    14    20 ar  
    30    15    16 3   
    31    16    17 1   
    32    17    18 1   
    33    17    19 1   
    34    18    32 1   
    35    18    33 1   
    36    18    34 1   
    37    19    35 1   
    38    19    36 1   
    39    19    37 1   
    40    20    29 ar  
    41    20    49 1   
    42    21    27 1   
    43    21    50 1   
    44    21    51 1   
    45    22    23 1   
    46    22    31 1   
    47    22    38 1   
    48    22    52 1   
    49    23    24 1   
    50    23    53 1   
    51    23    54 1   
    52    24    25 1   
    53    24    55 1   
    54    24    56 1   
    55    25    39 1   
    56    25    40 1   
    57    26    28 1   
    58    26    57 1   
    59    26    58 1   
    60    27    59 1   
    61    27    60 1   
    62    27    61 1   
    63    28    62 1   
    64    28    63 1   
    65    28    64 1   
    66    29    65 1   
    67    30    66 1   
    68    30    67 1   
    69    30    68 1   
    70    31    69 1   
    71    31    70 1   
    72    38    71 1   
@<TRIPOS>SUBSTRUCTURE
     1 DS5         1 TEMP              0 ****  ****    0 ROOT
