@<TRIPOS>MOLECULE
DS6
   81    82     1     0     0
SMALL
No Charge or Current Charge


@<TRIPOS>ATOM
      1 C1           3.2960     1.3670     0.2720 ca         1 DS6       0.156100
      2 O1           6.5770    -0.6390     1.9190 oh         1 DS6      -0.651000
      3 C2           2.4070     0.6640    -0.5650 ca         1 DS6      -0.202000
      4 O2           9.6950    -3.0520    -1.6810 o          1 DS6      -0.740000
      5 C3           1.1190     1.1650    -0.8110 ca         1 DS6      -0.072000
      6 C4           0.6730     2.3700    -0.2190 ca         1 DS6      -0.118300
      7 C5           1.5890     3.0800     0.5950 ca         1 DS6      -0.081000
      8 C6           2.8840     2.5850     0.8490 ca         1 DS6      -0.115300
      9 C7          -4.7610    -1.4580    -0.9360 c3         1 DS6      -0.025100
     10 C8          -9.0670    -0.8960     0.7090 c3         1 DS6      -0.083100
     11 C9          -2.4810    -1.6140     1.0660 c3         1 DS6      -0.046800
     12 C10         -0.7550     2.9160    -0.5320 c3         1 DS6       0.064600
     13 C11         -1.7940     1.7580    -0.6630 ca         1 DS6      -0.055300
     14 C12         -1.3050     3.8800     0.5790 c3         1 DS6      -0.064400
     15 C13         -0.6250     3.7760    -1.8400 c3         1 DS6      -0.064400
     16 C14         -0.1720     3.0330    -3.1210 c3         1 DS6      -0.089100
     17 C15         -7.6980    -2.1220     2.4450 c3         1 DS6      -0.083100
     18 C16          9.2460    -3.2180    -0.5570 c          1 DS6       0.717000
     19 C17          8.6860    -1.9950     0.1890 c3         1 DS6      -0.205400
     20 C18         -9.1730    -3.4170     0.8830 c3         1 DS6      -0.083100
     21 C20         -1.4470     3.2930     2.0050 c3         1 DS6      -0.089100
     22 C26         -1.7120     0.6280     0.1870 ca         1 DS6      -0.102000
     23 C27         -2.6450    -0.4250     0.1200 ca         1 DS6      -0.074300
     24 C28         -3.7070    -0.3570    -0.8120 ca         1 DS6      -0.085300
     25 C29         -3.8170     0.7750    -1.6390 ca         1 DS6      -0.113000
     26 C30         -2.8830     1.8190    -1.5630 ca         1 DS6      -0.115000
     27 C34          3.8340     3.3760     1.7430 c3         1 DS6      -0.030800
     28 C43         -5.9870    -1.1930    -0.0300 c3         1 DS6      -0.108400
     29 C44         -7.0360    -2.3420    -0.0330 c3         1 DS6       0.174300
     30 O47         -7.5420    -2.4870    -1.3680 oh         1 DS6      -0.659000
     31 C48         -8.2320    -2.1810     0.9850 c3         1 DS6      -0.074000
     32 O62          4.5720     0.9070     0.5380 os         1 DS6      -0.332100
     33 C63          5.0790    -0.3260    -0.0100 c3         1 DS6       0.120600
     34 C64          6.5390    -0.5360     0.4820 c3         1 DS6       0.158300
     35 C67          7.1810    -1.8000    -0.1460 c3         1 DS6      -0.085400
     36 O71          9.1680    -4.3100    -0.0150 o          1 DS6      -0.740000
     37 HO1          5.9970    -1.3890     2.1690 ho         1 DS6       0.433000
     38 H2           2.6960    -0.2700    -1.0380 ha         1 DS6       0.123000
     39 H3           0.4650     0.6060    -1.4770 ha         1 DS6       0.113000
     40 H5           1.3110     4.0300     1.0390 ha         1 DS6       0.104000
     41 H7          -5.0920    -1.5320    -1.9790 hc         1 DS6       0.050700
     42 H7A         -4.3350    -2.4400    -0.6970 hc         1 DS6       0.050700
     43 H8          -8.4610     0.0100     0.8290 hc         1 DS6       0.034033
     44 H8A         -9.4860    -0.8960    -0.3040 hc         1 DS6       0.034033
     45 H8B         -9.9060    -0.8220     1.4120 hc         1 DS6       0.034033
     46 H9          -3.3990    -1.8030     1.6340 hc         1 DS6       0.040700
     47 H9A         -2.2310    -2.5250     0.5110 hc         1 DS6       0.040700
     48 H9B         -1.6800    -1.4470     1.7960 hc         1 DS6       0.040700
     49 H12         -0.6890     4.7840     0.6320 hc         1 DS6       0.034700
     50 H12A        -2.2980     4.2330     0.2730 hc         1 DS6       0.034700
     51 H13         -1.5700     4.2900    -2.0490 hc         1 DS6       0.034700
     52 H13A         0.1000     4.5790    -1.6570 hc         1 DS6       0.034700
     53 H14         -0.7960     2.1560    -3.3240 hc         1 DS6       0.035367
     54 H14A        -0.2410     3.7030    -3.9870 hc         1 DS6       0.035367
     55 H14B         0.8710     2.7070    -3.0410 hc         1 DS6       0.035367
     56 H15         -8.5240    -2.1470     3.1660 hc         1 DS6       0.034033
     57 H15A        -7.0410    -2.9740     2.6580 hc         1 DS6       0.034033
     58 H15B        -7.1350    -1.2000     2.6340 hc         1 DS6       0.034033
     59 H17          8.7430    -2.1550     1.2720 hc         1 DS6       0.025200
     60 H17A         9.1890    -1.0810    -0.1500 hc         1 DS6       0.025200
     61 H18         -9.6480    -3.4830    -0.1030 hc         1 DS6       0.034033
     62 H18A        -8.6180    -4.3470     1.0560 hc         1 DS6       0.034033
     63 H18B        -9.9760    -3.3620     1.6290 hc         1 DS6       0.034033
     64 H20         -2.2400     2.5380     2.0450 hc         1 DS6       0.035367
     65 H20A        -0.5130     2.8340     2.3500 hc         1 DS6       0.035367
     66 H20B        -1.7130     4.0870     2.7120 hc         1 DS6       0.035367
     67 H26         -0.9110     0.5690     0.9190 ha         1 DS6       0.122000
     68 H29         -4.6400     0.8510    -2.3460 ha         1 DS6       0.104000
     69 H30         -3.0280     2.6760    -2.2130 ha         1 DS6       0.111000
     70 H34          4.7350     3.6720     1.1930 hc         1 DS6       0.041033
     71 H34A         3.3680     4.2910     2.1300 hc         1 DS6       0.041033
     72 H34B         4.1490     2.7780     2.6060 hc         1 DS6       0.041033
     73 H43         -5.6190    -1.0370     0.9890 hc         1 DS6       0.047200
     74 H43A        -6.4570    -0.2530    -0.3410 hc         1 DS6       0.047200
     75 H44         -6.5010    -3.2610     0.2460 h1         1 DS6       0.068700
     76 HO47        -8.0790    -1.6880    -1.5510 ho         1 DS6       0.436000
     77 H63          4.4590    -1.1750     0.3040 h1         1 DS6       0.035200
     78 H63A         5.0750    -0.2830    -1.1070 h1         1 DS6       0.035200
     79 H64          7.1240     0.3360     0.1560 h1         1 DS6       0.074700
     80 H67          7.0740    -1.7370    -1.2360 hc         1 DS6       0.045200
     81 H67A         6.6210    -2.6900     0.1690 hc         1 DS6       0.045200
@<TRIPOS>BOND
     1     1     3 ar  
     2     1     8 ar  
     3     1    32 1   
     4     2    34 1   
     5     2    37 1   
     6     3     5 ar  
     7     3    38 1   
     8     4    18 1   
     9     5     6 ar  
    10     5    39 1   
    11     6     7 ar  
    12     6    12 1   
    13     7     8 ar  
    14     7    40 1   
    15     8    27 1   
    16     9    24 1   
    17     9    28 1   
    18     9    41 1   
    19     9    42 1   
    20    10    31 1   
    21    10    43 1   
    22    10    44 1   
    23    10    45 1   
    24    11    23 1   
    25    11    46 1   
    26    11    47 1   
    27    11    48 1   
    28    12    13 1   
    29    12    14 1   
    30    12    15 1   
    31    13    22 ar  
    32    13    26 ar  
    33    14    21 1   
    34    14    49 1   
    35    14    50 1   
    36    15    16 1   
    37    15    51 1   
    38    15    52 1   
    39    16    53 1   
    40    16    54 1   
    41    16    55 1   
    42    17    31 1   
    43    17    56 1   
    44    17    57 1   
    45    17    58 1   
    46    18    19 1   
    47    18    36 1   
    48    19    35 1   
    49    19    59 1   
    50    19    60 1   
    51    20    31 1   
    52    20    61 1   
    53    20    62 1   
    54    20    63 1   
    55    21    64 1   
    56    21    65 1   
    57    21    66 1   
    58    22    23 ar  
    59    22    67 1   
    60    23    24 ar  
    61    24    25 ar  
    62    25    26 ar  
    63    25    68 1   
    64    26    69 1   
    65    27    70 1   
    66    27    71 1   
    67    27    72 1   
    68    28    29 1   
    69    28    73 1   
    70    28    74 1   
    71    29    30 1   
    72    29    31 1   
    73    29    75 1   
    74    30    76 1   
    75    32    33 1   
    76    33    34 1   
    77    33    77 1   
    78    33    78 1   
    79    34    35 1   
    80    34    79 1   
    81    35    80 1   
    82    35    81 1   
@<TRIPOS>SUBSTRUCTURE
     1 DS6         1 TEMP              0 ****  ****    0 ROOT
