@<TRIPOS>MOLECULE
DS6
   81    82     1     0     0
SMALL
bcc


@<TRIPOS>ATOM
      1 C1           3.2750     1.3130     0.2650 ca         1 DS6       0.156100
      2 O1           6.6090    -0.3670     1.8850 oh         1 DS6      -0.588800
      3 C2           2.4090     0.5710    -0.5290 ca         1 DS6      -0.220000
      4 O2           8.5940    -3.7410    -1.2570 o          1 DS6      -0.845300
      5 C3           1.1110     1.0170    -0.7490 ca         1 DS6      -0.090000
      6 C4           0.6330     2.1950    -0.1890 ca         1 DS6      -0.118300
      7 C5           1.5340     2.9280     0.5880 ca         1 DS6      -0.099000
      8 C6           2.8370     2.5170     0.8310 ca         1 DS6      -0.115300
      9 C7          -4.8580    -1.4310    -1.0510 c3         1 DS6      -0.025100
     10 C8          -8.9010    -0.6910     0.8770 c3         1 DS6      -0.083100
     11 C9          -2.6260    -1.7300     0.9060 c3         1 DS6      -0.046800
     12 C10         -0.7610     2.7290    -0.5080 c3         1 DS6       0.064600
     13 C11         -1.7720     1.6040    -0.7250 ca         1 DS6      -0.055300
     14 C12         -1.3230     3.6310     0.6210 c3         1 DS6      -0.064400
     15 C13         -0.6240     3.6500    -1.7460 c3         1 DS6      -0.064400
     16 C14         -0.0730     3.0150    -3.0140 c3         1 DS6      -0.089100
     17 C15         -7.5130    -2.1100     2.4030 c3         1 DS6      -0.083100
     18 C16          9.2640    -3.0470    -0.4690 c          1 DS6       0.927600
     19 C17          8.5780    -1.8350     0.1880 c3         1 DS6      -0.205400
     20 C18         -9.1780    -3.1680     0.9030 c3         1 DS6      -0.083100
     21 C20         -1.4870     3.0050     1.9980 c3         1 DS6      -0.089100
     22 C26         -1.7630     0.4670     0.0840 ca         1 DS6      -0.120000
     23 C27         -2.7220    -0.5370    -0.0040 ca         1 DS6      -0.074300
     24 C28         -3.7550    -0.4160    -0.9440 ca         1 DS6      -0.085300
     25 C29         -3.7700     0.7110    -1.7560 ca         1 DS6      -0.131000
     26 C30         -2.8050     1.7040    -1.6520 ca         1 DS6      -0.133000
     27 C34          3.7610     3.3340     1.6850 c3         1 DS6      -0.030800
     28 C43         -5.9880    -1.1390    -0.0580 c3         1 DS6      -0.108400
     29 C44         -7.0840    -2.2010    -0.0730 c3         1 DS6       0.151100
     30 O47         -7.6510    -2.3150    -1.3660 oh         1 DS6      -0.596800
     31 C48         -8.1650    -2.0250     1.0210 c3         1 DS6      -0.074000
     32 O62          4.5480     0.9600     0.5400 os         1 DS6      -0.308900
     33 C63          5.0450    -0.2630     0.0360 c3         1 DS6       0.097400
     34 C64          6.4920    -0.4110     0.4790 c3         1 DS6       0.135100
     35 C67          7.0990    -1.6720    -0.1260 c3         1 DS6      -0.085400
     36 O71         10.4590    -3.2300    -0.1550 o          1 DS6      -0.845300
     37 HO1          6.2500    -1.1860     2.2420 ho         1 DS6       0.394000
     38 H2           2.7200    -0.3570    -0.9890 ha         1 DS6       0.141000
     39 H3           0.4670     0.4160    -1.3770 ha         1 DS6       0.131000
     40 H5           1.2280     3.8680     1.0320 ha         1 DS6       0.122000
     41 H7          -5.2580    -1.4280    -2.0670 hc         1 DS6       0.050700
     42 H7A         -4.4740    -2.4390    -0.8730 hc         1 DS6       0.050700
     43 H8          -8.2300     0.1640     0.9800 hc         1 DS6       0.034033
     44 H8A         -9.4080    -0.6050    -0.0870 hc         1 DS6       0.034033
     45 H8B         -9.6710    -0.5940     1.6460 hc         1 DS6       0.034033
     46 H9          -3.4840    -1.8040     1.5780 hc         1 DS6       0.040700
     47 H9A         -2.5840    -2.6660     0.3450 hc         1 DS6       0.040700
     48 H9B         -1.7320    -1.6780     1.5260 hc         1 DS6       0.040700
     49 H12         -0.6910     4.5190     0.7040 hc         1 DS6       0.034700
     50 H12A        -2.2940     4.0020     0.2790 hc         1 DS6       0.034700
     51 H13         -1.5930     4.1130    -1.9550 hc         1 DS6       0.034700
     52 H13A         0.0300     4.4780    -1.4550 hc         1 DS6       0.034700
     53 H14         -0.6520     2.1460    -3.3280 hc         1 DS6       0.035367
     54 H14A        -0.0950     3.7360    -3.8330 hc         1 DS6       0.035367
     55 H14B         0.9600     2.6940    -2.8880 hc         1 DS6       0.035367
     56 H15         -8.2740    -2.1030     3.1850 hc         1 DS6       0.034033
     57 H15A        -6.9390    -3.0350     2.5110 hc         1 DS6       0.034033
     58 H15B        -6.8360    -1.2780     2.6020 hc         1 DS6       0.034033
     59 H17          8.7320    -1.8980     1.2690 hc         1 DS6       0.025200
     60 H17A         9.1170    -0.9320    -0.1250 hc         1 DS6       0.025200
     61 H18         -9.7190    -3.1410    -0.0430 hc         1 DS6       0.034033
     62 H18A        -8.6880    -4.1420     0.9790 hc         1 DS6       0.034033
     63 H18B        -9.9130    -3.1050     1.7080 hc         1 DS6       0.034033
     64 H20         -2.2460     2.2240     2.0060 hc         1 DS6       0.035367
     65 H20A        -0.5580     2.5680     2.3630 hc         1 DS6       0.035367
     66 H20B        -1.7950     3.7670     2.7160 hc         1 DS6       0.035367
     67 H26         -0.9780     0.3470     0.8200 ha         1 DS6       0.140000
     68 H29         -4.5560     0.8210    -2.4950 ha         1 DS6       0.122000
     69 H30         -2.8770     2.5580    -2.3130 ha         1 DS6       0.129000
     70 H34          4.6760     3.6040     1.1550 hc         1 DS6       0.041033
     71 H34A         3.2770     4.2570     2.0020 hc         1 DS6       0.041033
     72 H34B         4.0650     2.7930     2.5830 hc         1 DS6       0.041033
     73 H43         -5.5680    -1.0620     0.9470 hc         1 DS6       0.047200
     74 H43A        -6.4080    -0.1520    -0.2820 hc         1 DS6       0.047200
     75 H44         -6.6110    -3.1730     0.1130 h1         1 DS6       0.068700
     76 HO47        -7.9570    -1.4450    -1.6430 ho         1 DS6       0.397000
     77 H63          4.4470    -1.1060     0.4070 h1         1 DS6       0.035200
     78 H63A         4.9960    -0.2810    -1.0590 h1         1 DS6       0.035200
     79 H64          7.0500     0.4580     0.1100 h1         1 DS6       0.074700
     80 H67          6.9580    -1.6410    -1.2080 hc         1 DS6       0.045200
     81 H67A         6.5400    -2.5470     0.2260 hc         1 DS6       0.045200
@<TRIPOS>BOND
     1     1     3 ar  
     2     1     8 ar  
     3     1    32 1   
     4     2    34 1   
     5     2    37 1   
     6     3     5 ar  
     7     3    38 1   
     8     4    18 1   
     9     5     6 ar  
    10     5    39 1   
    11     6     7 ar  
    12     6    12 1   
    13     7     8 ar  
    14     7    40 1   
    15     8    27 1   
    16     9    24 1   
    17     9    28 1   
    18     9    41 1   
    19     9    42 1   
    20    10    31 1   
    21    10    43 1   
    22    10    44 1   
    23    10    45 1   
    24    11    23 1   
    25    11    46 1   
    26    11    47 1   
    27    11    48 1   
    28    12    13 1   
    29    12    14 1   
    30    12    15 1   
    31    13    22 ar  
    32    13    26 ar  
    33    14    21 1   
    34    14    49 1   
    35    14    50 1   
    36    15    16 1   
    37    15    51 1   
    38    15    52 1   
    39    16    53 1   
    40    16    54 1   
    41    16    55 1   
    42    17    31 1   
    43    17    56 1   
    44    17    57 1   
    45    17    58 1   
    46    18    19 1   
    47    18    36 1   
    48    19    35 1   
    49    19    59 1   
    50    19    60 1   
    51    20    31 1   
    52    20    61 1   
    53    20    62 1   
    54    20    63 1   
    55    21    64 1   
    56    21    65 1   
    57    21    66 1   
    58    22    23 ar  
    59    22    67 1   
    60    23    24 ar  
    61    24    25 ar  
    62    25    26 ar  
    63    25    68 1   
    64    26    69 1   
    65    27    70 1   
    66    27    71 1   
    67    27    72 1   
    68    28    29 1   
    69    28    73 1   
    70    28    74 1   
    71    29    30 1   
    72    29    31 1   
    73    29    75 1   
    74    30    76 1   
    75    32    33 1   
    76    33    34 1   
    77    33    77 1   
    78    33    78 1   
    79    34    35 1   
    80    34    79 1   
    81    35    80 1   
    82    35    81 1   
@<TRIPOS>SUBSTRUCTURE
     1 DS6         1 TEMP              0 ****  ****    0 ROOT
