@<TRIPOS>MOLECULE
DS7
   21    21     1     0     0
SMALL
No Charge or Current Charge


@<TRIPOS>ATOM
      1 C7           2.6460    -1.3380     0.0160 c3         1 DS7       0.066900
      2 C4          -2.1600     0.2970    -0.0140 c          1 DS7       0.730600
      3 C5           0.1280    -0.8950     0.0010 cc         1 DS7      -0.150300
      4 C6          -0.2870    -2.3510    -0.0000 c3         1 DS7      -0.021800
      5 C3          -0.6580     0.2430    -0.0050 cd         1 DS7      -0.172600
      6 C2           0.2090     1.3610    -0.0010 cd         1 DS7      -0.128000
      7 C1           1.5080     0.9450     0.0070 cc         1 DS7      -0.235300
      8 O           -2.6940     1.3980    -0.0190 o          1 DS7      -0.738500
      9 O1          -2.8110    -0.7380    -0.0170 o          1 DS7      -0.738500
     10 N            1.4630    -0.4540     0.0080 na         1 DS7      -0.001000
     11 C            2.7600     1.7850     0.0130 c3         1 DS7      -0.001800
     12 H9           2.6220    -1.9700     0.9120 h1         1 DS7       0.027367
     13 H10          2.6320    -1.9730    -0.8780 h1         1 DS7       0.027367
     14 H8           3.5710    -0.7500     0.0200 h1         1 DS7       0.027367
     15 H5          -0.8830    -2.5840    -0.8910 hc         1 DS7       0.038033
     16 H6           0.5700    -3.0340     0.0060 hc         1 DS7       0.038033
     17 H7          -0.8930    -2.5820     0.8840 hc         1 DS7       0.038033
     18 H3          -0.1130     2.3980    -0.0050 ha         1 DS7       0.131000
     19 H            3.3750     1.5800    -0.8710 hc         1 DS7       0.020700
     20 H2           2.5170     2.8550     0.0110 hc         1 DS7       0.020700
     21 H1           3.3650     1.5810     0.9050 hc         1 DS7       0.020700
@<TRIPOS>BOND
     1     1    10 1   
     2     1    12 1   
     3     1    13 1   
     4     1    14 1   
     5     2     5 1   
     6     2     8 1   
     7     2     9 1   
     8     3     4 1   
     9     3     5 2   
    10     3    10 1   
    11     4    15 1   
    12     4    16 1   
    13     4    17 1   
    14     5     6 1   
    15     6     7 2   
    16     6    18 1   
    17     7    10 1   
    18     7    11 1   
    19    11    19 1   
    20    11    20 1   
    21    11    21 1   
@<TRIPOS>SUBSTRUCTURE
     1 DS7         1 TEMP              0 ****  ****    0 ROOT
