@<TRIPOS>MOLECULE
DS7
   21    21     1     0     0
SMALL
bcc


@<TRIPOS>ATOM
      1 C7           2.5820    -1.3040    -0.0740 c3         1 DS7       0.037600
      2 C4          -2.1830     0.3220     0.1210 c          1 DS7       0.941200
      3 C5           0.1260    -0.8730    -0.0100 cc         1 DS7      -0.099600
      4 C6          -0.2000    -2.3250    -0.0460 c3         1 DS7      -0.021800
      5 C3          -0.6880     0.2440     0.0680 cd         1 DS7      -0.172600
      6 C2           0.1780     1.3750     0.0830 cd         1 DS7      -0.146000
      7 C1           1.4690     0.9290     0.0140 cc         1 DS7      -0.184600
      8 O           -2.6730     1.4700     0.2030 o          1 DS7      -0.843800
      9 O1          -2.8400    -0.7440     0.0800 o          1 DS7      -0.843800
     10 N            1.4240    -0.4420    -0.0500 na         1 DS7      -0.073100
     11 C            2.7450     1.6940    -0.0000 c3         1 DS7      -0.001800
     12 H9           2.9010    -1.5830     0.9310 h1         1 DS7       0.027367
     13 H10          2.3620    -2.2130    -0.6290 h1         1 DS7       0.027367
     14 H8           3.4090    -0.8030    -0.5700 h1         1 DS7       0.027367
     15 H5           0.1480    -2.8040    -0.9660 hc         1 DS7       0.038033
     16 H6           0.2540    -2.8700     0.7860 hc         1 DS7       0.038033
     17 H7          -1.2770    -2.4460     0.0120 hc         1 DS7       0.038033
     18 H3          -0.1210     2.4100     0.1360 ha         1 DS7       0.149000
     19 H            3.3300     1.5240    -0.9080 hc         1 DS7       0.020700
     20 H2           2.5290     2.7600     0.0510 hc         1 DS7       0.020700
     21 H1           3.3920     1.4510     0.8470 hc         1 DS7       0.020700
@<TRIPOS>BOND
     1     1    10 1   
     2     1    12 1   
     3     1    13 1   
     4     1    14 1   
     5     2     5 1   
     6     2     8 1   
     7     2     9 1   
     8     3     4 1   
     9     3     5 2   
    10     3    10 1   
    11     4    15 1   
    12     4    16 1   
    13     4    17 1   
    14     5     6 1   
    15     6     7 2   
    16     6    18 1   
    17     7    10 1   
    18     7    11 1   
    19    11    19 1   
    20    11    20 1   
    21    11    21 1   
@<TRIPOS>SUBSTRUCTURE
     1 DS7         1 TEMP              0 ****  ****    0 ROOT
