@<TRIPOS>MOLECULE
DS8
   44    45     1     0     0
SMALL
bcc


@<TRIPOS>ATOM
      1 C1          -1.3030    -0.4530    -0.3870 c6         1 DS8       0.155100
      2 C2          -2.4530    -1.1480    -1.1050 c6         1 DS8       0.117100
      3 C3          -3.7620    -0.3930    -0.8490 c6         1 DS8       0.126100
      4 C4          -3.9480    -0.1690     0.6480 c6         1 DS8       0.083100
      5 C5          -2.7090     0.4420     1.3250 c6         1 DS8       0.123100
      6 C6          -2.4860     1.9320     1.0960 c3         1 DS8      -0.119100
      7 C7           0.0250    -1.1750    -0.5420 c3         1 DS8      -0.060400
      8 C8           2.7430     1.5620    -0.1690 c6         1 DS8       0.352900
      9 O2          -2.5420    -2.4740    -0.6400 oh         1 DS8      -0.583800
     10 O3          -3.7110     0.8080    -1.5840 oh         1 DS8      -0.599800
     11 C9           1.4730     0.9110    -0.6840 c6         1 DS8      -0.107400
     12 O4          -5.1030     0.6220     0.8130 oh         1 DS8      -0.607800
     13 C10          1.2230    -0.4180     0.0270 c6         1 DS8      -0.055700
     14 C11          2.4840    -1.2780    -0.0480 c6         1 DS8      -0.111400
     15 C12          3.7110    -0.5020     0.4130 c6         1 DS8       0.159100
     16 C13          4.9760    -1.3110     0.2350 c3         1 DS8       0.144400
     17 O5          -1.5730    -0.3380     0.9970 os         1 DS8      -0.396600
     18 O8           2.9920     2.7120    -0.8970 oh         1 DS8      -0.580800
     19 O12          3.8470     0.7000    -0.3210 os         1 DS8      -0.435600
     20 O13          6.0630    -0.6180     0.8010 oh         1 DS8      -0.586800
     21 H1          -1.2100     0.5400    -0.8450 h1         1 DS8       0.057700
     22 H2          -2.2460    -1.1190    -2.1850 h1         1 DS8       0.056700
     23 H3          -4.6000    -1.0150    -1.2050 h1         1 DS8       0.039700
     24 H4          -4.0940    -1.1620     1.0920 h1         1 DS8       0.057700
     25 H5          -2.8350     0.3030     2.4050 h1         1 DS8       0.062700
     26 H6          -3.3380     2.5050     1.4590 hc         1 DS8       0.046700
     27 H7          -1.6130     2.2600     1.6630 hc         1 DS8       0.046700
     28 H8          -2.3330     2.1990     0.0520 hc         1 DS8       0.046700
     29 H9          -0.0380    -2.1590    -0.0700 hc         1 DS8       0.057200
     30 H10          0.1950    -1.3540    -1.6100 hc         1 DS8       0.057200
     31 H11          2.6220     1.7880     0.9060 h2         1 DS8       0.012700
     32 H12         -3.2410    -2.9220    -1.1260 ho         1 DS8       0.402000
     33 H13         -4.4240     1.3770    -1.2770 ho         1 DS8       0.428000
     34 H15          1.5710     0.7440    -1.7640 hc         1 DS8       0.061700
     35 H16         -5.2930     0.7100     1.7520 ho         1 DS8       0.415000
     36 H17          1.0290    -0.2060     1.0850 hc         1 DS8       0.060700
     37 H18          2.3650    -2.1670     0.5760 hc         1 DS8       0.051200
     38 H19          2.6370    -1.6240    -1.0770 hc         1 DS8       0.051200
     39 H20          3.5920    -0.2690     1.4850 h1         1 DS8       0.042700
     40 H21          4.8200    -2.2850     0.7150 h1         1 DS8       0.025700
     41 H22          5.1290    -1.5040    -0.8360 h1         1 DS8       0.025700
     42 H23          3.6560     3.2400    -0.4410 ho         1 DS8       0.418000
     43 H24          6.8540    -1.1480     0.6690 ho         1 DS8       0.403000
     44 H14          0.6390     1.6010    -0.5350 hc         1 DS8       0.061700
@<TRIPOS>BOND
     1     1     2 1   
     2     1     7 1   
     3     1    17 1   
     4     1    21 1   
     5     2     3 1   
     6     2     9 1   
     7     2    22 1   
     8     3     4 1   
     9     3    10 1   
    10     3    23 1   
    11     4     5 1   
    12     4    12 1   
    13     4    24 1   
    14     5     6 1   
    15     5    17 1   
    16     5    25 1   
    17     6    26 1   
    18     6    27 1   
    19     6    28 1   
    20     7    13 1   
    21     7    29 1   
    22     7    30 1   
    23     8    11 1   
    24     8    18 1   
    25     8    19 1   
    26     8    31 1   
    27     9    32 1   
    28    10    33 1   
    29    11    13 1   
    30    11    34 1   
    31    11    44 1   
    32    12    35 1   
    33    13    14 1   
    34    13    36 1   
    35    14    15 1   
    36    14    37 1   
    37    14    38 1   
    38    15    16 1   
    39    15    19 1   
    40    15    39 1   
    41    16    20 1   
    42    16    40 1   
    43    16    41 1   
    44    18    42 1   
    45    20    43 1   
@<TRIPOS>SUBSTRUCTURE
     1 DS8         1 TEMP              0 ****  ****    0 ROOT
