@<TRIPOS>MOLECULE
DS8
   44    45     1     0     0
SMALL
No Charge or Current Charge


@<TRIPOS>ATOM
      1 C1          -1.3560    -0.4570    -0.4290 c6         1 DS8       0.178300
      2 C2          -2.5310    -1.2350    -1.1140 c6         1 DS8       0.140300
      3 C3          -3.8620    -0.4460    -0.8830 c6         1 DS8       0.149300
      4 C4          -4.0730    -0.1250     0.6350 c6         1 DS8       0.106300
      5 C5          -2.7900     0.4770     1.3210 c6         1 DS8       0.146300
      6 C6          -2.4880     1.9800     1.0320 c3         1 DS8      -0.119100
      7 C7           0.0250    -1.1650    -0.5830 c3         1 DS8      -0.060400
      8 C8           2.7520     1.6380     0.0360 c6         1 DS8       0.399300
      9 O2          -2.6540    -2.5800    -0.5890 oh         1 DS8      -0.706000
     10 O3          -3.9000     0.7770    -1.6320 oh         1 DS8      -0.662000
     11 C9           1.4790     0.9930    -0.5590 c6         1 DS8      -0.107400
     12 O4          -5.2270     0.7340     0.7970 oh         1 DS8      -0.730000
     13 C10          1.2490    -0.4230     0.0440 c6         1 DS8      -0.055700
     14 C11          2.5490    -1.2640    -0.1010 c6         1 DS8      -0.111400
     15 C12          3.7730    -0.4960     0.4660 c6         1 DS8       0.182300
     16 C13          5.1120    -1.2830     0.2620 c3         1 DS8       0.167600
     17 O5          -1.6160    -0.3060     0.9920 os         1 DS8      -0.443000
     18 O8           3.0650     2.8350    -0.6340 oh         1 DS8      -0.643000
     19 O12          3.8790     0.7920    -0.1870 os         1 DS8      -0.482000
     20 O13          6.2710    -0.5840     0.7600 oh         1 DS8      -0.709000
     21 H1          -1.2740     0.5320    -0.8980 h1         1 DS8       0.057700
     22 H2          -2.3330    -1.2750    -2.1960 h1         1 DS8       0.056700
     23 H3          -4.6980    -1.0820    -1.2110 h1         1 DS8       0.039700
     24 H4          -4.2700    -1.0880     1.1320 h1         1 DS8       0.057700
     25 H5          -2.9300     0.3940     2.4090 h1         1 DS8       0.062700
     26 H6          -3.2770     2.6210     1.4420 hc         1 DS8       0.046700
     27 H7          -1.5480     2.2840     1.5090 hc         1 DS8       0.046700
     28 H8          -2.4050     2.2090    -0.0340 hc         1 DS8       0.046700
     29 H9          -0.0390    -2.1670    -0.1430 hc         1 DS8       0.057200
     30 H10          0.2160    -1.3270    -1.6510 hc         1 DS8       0.057200
     31 H11          2.6280     1.8240     1.1130 h2         1 DS8       0.012700
     32 H12         -3.2280    -3.0850    -1.2110 ho         1 DS8       0.501000
     33 H13         -4.5290     1.3340    -1.1140 ho         1 DS8       0.467000
     34 H15          1.5720     0.9280    -1.6510 hc         1 DS8       0.061700
     35 H16         -5.5020     0.6840     1.7440 ho         1 DS8       0.514000
     36 H17          1.0360    -0.3120     1.1170 hc         1 DS8       0.060700
     37 H18          2.4370    -2.2220     0.4260 hc         1 DS8       0.051200
     38 H19          2.7240    -1.5050    -1.1590 hc         1 DS8       0.051200
     39 H20          3.6330    -0.3350     1.5450 h1         1 DS8       0.042700
     40 H21          5.0160    -2.2530     0.7660 h1         1 DS8       0.025700
     41 H22          5.2290    -1.4850    -0.8120 h1         1 DS8       0.025700
     42 H23          3.9960     2.6880    -0.9030 ho         1 DS8       0.457000
     43 H24          7.0580    -1.1240     0.5130 ho         1 DS8       0.502000
     44 H14          0.6210     1.6450    -0.3490 hc         1 DS8       0.061700
@<TRIPOS>BOND
     1     1     2 1   
     2     1     7 1   
     3     1    17 1   
     4     1    21 1   
     5     2     3 1   
     6     2     9 1   
     7     2    22 1   
     8     3     4 1   
     9     3    10 1   
    10     3    23 1   
    11     4     5 1   
    12     4    12 1   
    13     4    24 1   
    14     5     6 1   
    15     5    17 1   
    16     5    25 1   
    17     6    26 1   
    18     6    27 1   
    19     6    28 1   
    20     7    13 1   
    21     7    29 1   
    22     7    30 1   
    23     8    11 1   
    24     8    18 1   
    25     8    19 1   
    26     8    31 1   
    27     9    32 1   
    28    10    33 1   
    29    11    13 1   
    30    11    34 1   
    31    11    44 1   
    32    12    35 1   
    33    13    14 1   
    34    13    36 1   
    35    14    15 1   
    36    14    37 1   
    37    14    38 1   
    38    15    16 1   
    39    15    19 1   
    40    15    39 1   
    41    16    20 1   
    42    16    40 1   
    43    16    41 1   
    44    18    42 1   
    45    20    43 1   
@<TRIPOS>SUBSTRUCTURE
     1 DS8         1 TEMP              0 ****  ****    0 ROOT
