@<TRIPOS>MOLECULE
DSA
   60    64     1     0     0
SMALL
No Charge or Current Charge


@<TRIPOS>ATOM
      1 C20         -0.6630     0.8210     1.6420 ca         1 DSA      -0.080800
      2 C21         -1.0930     0.2450     0.4890 ca         1 DSA      -0.064200
      3 C22         -0.1990    -0.1940    -0.4970 ca         1 DSA       0.101100
      4 C23          1.1950     0.0210    -0.2710 ca         1 DSA       0.082100
      5 C24          1.6360     0.6180     0.9480 ca         1 DSA       0.103100
      6 C25          0.6900     1.0250     1.9250 ca         1 DSA      -0.151000
      7 C18         -3.0010     0.7030     1.7140 cc         1 DSA      -0.132300
      8 C19         -1.8500     1.1160     2.4000 cd         1 DSA      -0.197200
      9 C16         -4.4650     0.8120     2.0570 c          1 DSA       0.642300
     10 C6          -8.6340     1.9290     3.5710 ca         1 DSA       0.141100
     11 C7          -7.3930     1.6890     2.9390 ca         1 DSA      -0.179000
     12 C8          -6.2410     1.4870     3.7420 ca         1 DSA      -0.019000
     13 C11         -3.9980     1.2180     4.5470 c5         1 DSA       0.099000
     14 C10         -4.9840     1.2150     5.7900 c5         1 DSA      -0.014400
     15 C13         -4.9760    -0.1150     6.5760 c3         1 DSA      -0.083100
     16 C9          -6.3160     1.4950     5.1240 ca         1 DSA      -0.116300
     17 C26         -0.2370    -2.1200    -2.0150 c3         1 DSA       0.146900
     18 C27          2.1400     0.3890    -2.4870 c3         1 DSA       0.152900
     19 C5          -8.6790     1.9510     4.9790 ca         1 DSA      -0.065200
     20 C4          -7.5540     1.7390     5.7300 ca         1 DSA      -0.053800
     21 C3          -7.9350     1.8270     7.1060 cc         1 DSA      -0.168200
     22 C2          -9.3050     2.0900     7.1330 cd         1 DSA      -0.129300
     23 C14        -10.1100     2.2590     8.3750 c          1 DSA       0.622300
     24 C15        -10.0850     2.2790    10.7890 c3         1 DSA       0.153900
     25 N17         -2.4760     0.1720     0.5080 na         1 DSA      -0.176700
     26 N12         -4.9010     1.1990     3.3640 n          1 DSA      -0.202400
     27 N1          -9.7800     2.1680     5.7960 na         1 DSA      -0.178700
     28 O24          2.9960     0.8060     1.1370 os         1 DSA      -0.337100
     29 O16         -5.2830     0.5300     1.1860 o          1 DSA      -0.626100
     30 O22         -0.7110    -0.8190    -1.6190 os         1 DSA      -0.362100
     31 O23          2.1410    -0.3020    -1.2250 os         1 DSA      -0.353100
     32 O15         -9.3890     2.1320     9.5370 os         1 DSA      -0.434100
     33 O14        -11.3130     2.4900     8.3530 o          1 DSA      -0.497000
     34 H25          0.9800     1.4870     2.8630 ha         1 DSA       0.123000
     35 H19         -1.8050     1.6440     3.3430 ha         1 DSA       0.203000
     36 H7          -7.3310     1.6780     1.8550 ha         1 DSA       0.155000
     37 H111        -3.4140     2.1460     4.5610 h1         1 DSA       0.057700
     38 H112        -3.3170     0.3560     4.5650 h1         1 DSA       0.057700
     39 H10         -4.7150     2.0090     6.4970 hc         1 DSA       0.066700
     40 H131        -5.2450    -0.9580     5.9280 hc         1 DSA       0.041033
     41 H132        -5.6890    -0.0920     7.4070 hc         1 DSA       0.041033
     42 H133        -3.9830    -0.3170     6.9950 hc         1 DSA       0.041033
     43 H261        -0.8180    -2.4910    -2.8680 h1         1 DSA       0.043700
     44 H262         0.8170    -2.0970    -2.3140 h1         1 DSA       0.043700
     45 H263        -0.3460    -2.8370    -1.1910 h1         1 DSA       0.043700
     46 H271         2.9570     0.0240    -3.1220 h1         1 DSA       0.040367
     47 H272         1.1970     0.2370    -3.0260 h1         1 DSA       0.040367
     48 H273         2.2790     1.4670    -2.3360 h1         1 DSA       0.040367
     49 H3          -7.2910     1.7190     7.9750 ha         1 DSA       0.216000
     50 H281         3.1540     2.4290     2.4550 h1         1 DSA       0.041367
     51 H282         3.2670     0.8190     3.2170 h1         1 DSA       0.041367
     52 H283         4.6280     1.4560     2.2700 h1         1 DSA       0.041367
     53 H151        -9.3900     2.1540    11.6290 h1         1 DSA       0.052367
     54 H152       -10.5400     3.2750    10.8700 h1         1 DSA       0.052367
     55 H153       -10.8770     1.5250    10.8880 h1         1 DSA       0.052367
     56 H17         -3.0390    -0.2060    -0.2480 hn         1 DSA       0.382000
     57 H1         -10.7330     2.3480     5.4950 hn         1 DSA       0.380000
     58 H6          -9.5340     2.0800     1.8840 ho         1 DSA       0.474000
     59 O6          -9.7650     2.1390     2.8350 oh         1 DSA      -0.544100
     60 C28          3.5330     1.4070     2.3290 c3         1 DSA       0.145900
@<TRIPOS>BOND
     1     1     2 ar  
     2     1     6 ar  
     3     1     8 1   
     4     2     3 ar  
     5     2    25 1   
     6     3     4 ar  
     7     3    30 1   
     8     4     5 ar  
     9     4    31 1   
    10     5     6 ar  
    11     5    28 1   
    12     6    34 1   
    13     7     8 2   
    14     7     9 1   
    15     7    25 1   
    16     8    35 1   
    17     9    26 1   
    18     9    29 2   
    19    10    11 ar  
    20    10    19 ar  
    21    10    59 1   
    22    11    12 ar  
    23    11    36 1   
    24    12    16 ar  
    25    12    26 1   
    26    13    14 1   
    27    13    26 1   
    28    13    37 1   
    29    13    38 1   
    30    14    15 1   
    31    14    16 1   
    32    14    39 1   
    33    15    40 1   
    34    15    41 1   
    35    15    42 1   
    36    16    20 ar  
    37    17    30 1   
    38    17    43 1   
    39    17    44 1   
    40    17    45 1   
    41    18    31 1   
    42    18    46 1   
    43    18    47 1   
    44    18    48 1   
    45    19    20 ar  
    46    19    27 1   
    47    20    21 1   
    48    21    22 2   
    49    21    49 1   
    50    22    23 1   
    51    22    27 1   
    52    23    32 1   
    53    23    33 2   
    54    24    32 1   
    55    24    53 1   
    56    24    54 1   
    57    24    55 1   
    58    25    56 1   
    59    27    57 1   
    60    28    60 1   
    61    50    60 1   
    62    51    60 1   
    63    52    60 1   
    64    58    59 1   
@<TRIPOS>SUBSTRUCTURE
     1 DSA         1 TEMP              0 ****  ****    0 ROOT
