@<TRIPOS>MOLECULE
DSA
   60    64     1     0     0
SMALL
abcg2


@<TRIPOS>ATOM
      1 C20         -0.5590     0.4760     1.7900 ca         1 DSA      -0.080800
      2 C21         -1.1440     0.3510     0.5090 ca         1 DSA      -0.064200
      3 C22         -0.3640     0.1810    -0.6400 ca         1 DSA       0.101100
      4 C23          1.0110     0.1250    -0.4870 ca         1 DSA       0.082100
      5 C24          1.6130     0.2440     0.8020 ca         1 DSA       0.103100
      6 C25          0.8410     0.4200     1.9340 ca         1 DSA      -0.151000
      7 C18         -2.8160     0.6200     1.9850 cc         1 DSA      -0.132300
      8 C19         -1.6340     0.6440     2.7120 cd         1 DSA      -0.197200
      9 C16         -4.2650     0.7090     2.2620 c          1 DSA       0.642300
     10 C6          -8.4650     0.9190     3.6880 ca         1 DSA       0.141100
     11 C7          -7.2090     0.7800     3.1280 ca         1 DSA      -0.179000
     12 C8          -6.0670     1.0460     3.9150 ca         1 DSA      -0.019000
     13 C11         -3.8420     1.2340     4.6900 c5         1 DSA       0.099000
     14 C10         -4.7880     1.6410     5.8420 c5         1 DSA      -0.014400
     15 C13         -4.5300     0.8310     7.1140 c3         1 DSA      -0.083100
     16 C9          -6.1490     1.4370     5.2400 ca         1 DSA      -0.116300
     17 C26         -1.0760    -1.2070    -2.4150 c3         1 DSA       0.146900
     18 C27          2.3660     1.1080    -2.1490 c3         1 DSA       0.152900
     19 C5          -8.5680     1.3290     5.0240 ca         1 DSA      -0.065200
     20 C4          -7.4170     1.5950     5.8160 ca         1 DSA      -0.053800
     21 C3          -7.8980     2.0000     7.0970 cc         1 DSA      -0.168200
     22 C2          -9.2770     1.9650     7.0430 cd         1 DSA      -0.129300
     23 C14        -10.2860     2.2760     8.0520 c          1 DSA       0.622300
     24 C15        -10.6650     2.9860    10.2740 c3         1 DSA       0.153900
     25 N17         -2.4970     0.4400     0.6530 na         1 DSA      -0.176700
     26 N12         -4.7070     0.9610     3.5210 n          1 DSA      -0.202400
     27 N1          -9.6770     1.5580     5.7900 na         1 DSA      -0.178700
     28 O24          2.9740     0.1690     0.7970 os         1 DSA      -0.337100
     29 O16         -5.0450     0.5490     1.3080 o          1 DSA      -0.626100
     30 O22         -0.9620     0.1210    -1.8730 os         1 DSA      -0.362100
     31 O23          1.8010    -0.0870    -1.5880 os         1 DSA      -0.353100
     32 O15         -9.7440     2.6560     9.2150 os         1 DSA      -0.434100
     33 O14        -11.4850     2.1990     7.8520 o          1 DSA      -0.497000
     34 H25          1.2890     0.5120     2.9120 ha         1 DSA       0.123000
     35 H19         -1.5210     0.7570     3.7730 ha         1 DSA       0.203000
     36 H7          -7.1060     0.4740     2.1000 ha         1 DSA       0.155000
     37 H111        -3.1340     2.0230     4.4480 h1         1 DSA       0.057700
     38 H112        -3.2890     0.3310     4.9510 h1         1 DSA       0.057700
     39 H10         -4.6430     2.7010     6.0750 hc         1 DSA       0.066700
     40 H131        -4.6970    -0.2330     6.9290 hc         1 DSA       0.041033
     41 H132        -5.1880     1.1470     7.9240 hc         1 DSA       0.041033
     42 H133        -3.4980     0.9640     7.4460 hc         1 DSA       0.041033
     43 H261        -1.5900    -1.1060    -3.3680 h1         1 DSA       0.043700
     44 H262        -0.0880    -1.6430    -2.5700 h1         1 DSA       0.043700
     45 H263        -1.6610    -1.8410    -1.7450 h1         1 DSA       0.043700
     46 H271         2.9600     0.7970    -3.0060 h1         1 DSA       0.040367
     47 H272         1.5730     1.7850    -2.4750 h1         1 DSA       0.040367
     48 H273         3.0050     1.6100    -1.4200 h1         1 DSA       0.040367
     49 H3          -7.3160     2.2840     7.9570 ha         1 DSA       0.216000
     50 H281         3.4420     1.2730     2.5010 h1         1 DSA       0.041367
     51 H282         3.3560    -0.4930     2.7360 h1         1 DSA       0.041367
     52 H283         4.7090     0.2200     1.8210 h1         1 DSA       0.041367
     53 H151       -10.0440     3.2620    11.1200 h1         1 DSA       0.052367
     54 H152       -11.2980     3.8210     9.9760 h1         1 DSA       0.052367
     55 H153       -11.2830     2.1230    10.5190 h1         1 DSA       0.052367
     56 H17         -3.1930     0.3770    -0.0720 hn         1 DSA       0.382000
     57 H1         -10.6360     1.4590     5.5000 hn         1 DSA       0.380000
     58 H6          -9.4330     0.4120     2.1060 ho         1 DSA       0.474000
     59 O6          -9.6270     0.6850     3.0130 oh         1 DSA      -0.544100
     60 C28          3.6490     0.3020     2.0450 c3         1 DSA       0.145900
@<TRIPOS>BOND
     1     1     2 ar  
     2     1     6 ar  
     3     1     8 1   
     4     2     3 ar  
     5     2    25 1   
     6     3     4 ar  
     7     3    30 1   
     8     4     5 ar  
     9     4    31 1   
    10     5     6 ar  
    11     5    28 1   
    12     6    34 1   
    13     7     8 2   
    14     7     9 1   
    15     7    25 1   
    16     8    35 1   
    17     9    26 1   
    18     9    29 2   
    19    10    11 ar  
    20    10    19 ar  
    21    10    59 1   
    22    11    12 ar  
    23    11    36 1   
    24    12    16 ar  
    25    12    26 1   
    26    13    14 1   
    27    13    26 1   
    28    13    37 1   
    29    13    38 1   
    30    14    15 1   
    31    14    16 1   
    32    14    39 1   
    33    15    40 1   
    34    15    41 1   
    35    15    42 1   
    36    16    20 ar  
    37    17    30 1   
    38    17    43 1   
    39    17    44 1   
    40    17    45 1   
    41    18    31 1   
    42    18    46 1   
    43    18    47 1   
    44    18    48 1   
    45    19    20 ar  
    46    19    27 1   
    47    20    21 1   
    48    21    22 2   
    49    21    49 1   
    50    22    23 1   
    51    22    27 1   
    52    23    32 1   
    53    23    33 2   
    54    24    32 1   
    55    24    53 1   
    56    24    54 1   
    57    24    55 1   
    58    25    56 1   
    59    27    57 1   
    60    28    60 1   
    61    50    60 1   
    62    51    60 1   
    63    52    60 1   
    64    58    59 1   
@<TRIPOS>SUBSTRUCTURE
     1 DSA         1 TEMP              0 ****  ****    0 ROOT
