@<TRIPOS>MOLECULE
DSB
   28    27     1     0     0
SMALL
No Charge or Current Charge


@<TRIPOS>ATOM
      1 C1           2.0470    -3.1510    -2.7490 c          1 DSB       0.716000
      2 O2           3.0710    -3.2490    -2.0910 o          1 DSB      -0.748000
      3 C2           1.3080    -1.8000    -2.7470 c3         1 DSB      -0.199400
      4 C3           0.2920    -1.7320    -1.5700 c3         1 DSB      -0.153400
      5 C5          -0.0190     0.7100    -0.6370 c3         1 DSB      -0.180400
      6 O1           1.5440    -4.0820    -3.3610 o          1 DSB      -0.748000
      7 C6           0.7950     1.7910    -1.4050 c3         1 DSB      -0.180400
      8 C8           0.4830     4.2320    -0.4720 c3         1 DSB      -0.153400
      9 C9          -0.5330     4.3010     0.7050 c3         1 DSB      -0.199400
     10 C10         -1.2720     5.6520     0.7070 c          1 DSB       0.716000
     11 O11         -0.7690     6.5820     1.3180 o          1 DSB      -0.748000
     12 O12         -2.2960     5.7490     0.0490 o          1 DSB      -0.748000
     13 C7           1.2820     2.9170    -0.4750 c          1 DSB       0.561100
     14 C4          -0.5060    -0.4160    -1.5670 c          1 DSB       0.561100
     15 O4          -1.4990    -0.2710    -2.2700 o          1 DSB      -0.556600
     16 O7           2.2750     2.7720     0.2280 o          1 DSB      -0.556600
     17 H21          2.0190    -0.9810    -2.5820 hc         1 DSB       0.028950
     18 H22          0.7150    -1.6910    -3.6630 hc         1 DSB       0.028950
     19 H31          0.8640    -1.8220    -0.6390 hc         1 DSB       0.060700
     20 H32         -0.4080    -2.5710    -1.6630 hc         1 DSB       0.060700
     21 H51          0.6310     0.2930     0.1410 hc         1 DSB       0.064700
     22 H52         -0.8930     1.1860    -0.1770 hc         1 DSB       0.064700
     23 H61          0.1450     2.2070    -2.1830 hc         1 DSB       0.064700
     24 H62          1.6690     1.3140    -1.8640 hc         1 DSB       0.064700
     25 H81          1.1830     5.0710    -0.3790 hc         1 DSB       0.060700
     26 H82         -0.0890     4.3220    -1.4030 hc         1 DSB       0.060700
     27 H91         -1.2430     3.4820     0.5400 hc         1 DSB       0.028950
     28 H92          0.0600     4.1920     1.6220 hc         1 DSB       0.028950
@<TRIPOS>BOND
     1     1     2 1   
     2     1     3 1   
     3     1     6 1   
     4     3     4 1   
     5     3    17 1   
     6     3    18 1   
     7     4    14 1   
     8     4    19 1   
     9     4    20 1   
    10     5     7 1   
    11     5    14 1   
    12     5    21 1   
    13     5    22 1   
    14     7    13 1   
    15     7    23 1   
    16     7    24 1   
    17     8     9 1   
    18     8    13 1   
    19     8    25 1   
    20     8    26 1   
    21     9    10 1   
    22     9    27 1   
    23     9    28 1   
    24    10    11 1   
    25    10    12 1   
    26    13    16 2   
    27    14    15 2   
@<TRIPOS>SUBSTRUCTURE
     1 DSB         1 TEMP              0 ****  ****    0 ROOT
