@<TRIPOS>MOLECULE
DSB
   28    27     1     0     0
SMALL
bcc


@<TRIPOS>ATOM
      1 C1           1.8170    -4.0570    -2.7590 c          1 DSB       0.926600
      2 O2           2.4760    -4.2070    -1.7110 o          1 DSB      -0.853300
      3 C2           1.1110    -2.7070    -2.9830 c3         1 DSB      -0.199400
      4 C3           1.2370    -1.7210    -1.8390 c3         1 DSB      -0.153400
      5 C5           0.5190     0.5220    -0.8660 c3         1 DSB      -0.180400
      6 O1           1.6710    -4.9010    -3.6680 o          1 DSB      -0.853300
      7 C6           0.0700     1.9360    -1.1750 c3         1 DSB      -0.180400
      8 C8          -0.2430     4.2890    -0.2390 c3         1 DSB      -0.153400
      9 C9          -0.5180     5.1410     0.9840 c3         1 DSB      -0.199400
     10 C10         -0.7450     6.6380     0.6980 c          1 DSB       0.926600
     11 O11         -0.9370     7.3560     1.7010 o          1 DSB      -0.853300
     12 O12         -0.7250     7.0170    -0.4890 o          1 DSB      -0.853300
     13 C7          -0.0300     2.8250     0.0430 c          1 DSB       0.561100
     14 C4           0.5870    -0.3820    -2.0730 c          1 DSB       0.561100
     15 O4           0.1490    -0.0450    -3.1520 o          1 DSB      -0.556600
     16 O7           0.0540     2.3800     1.1660 o          1 DSB      -0.556600
     17 H21          1.5110    -2.2680    -3.9020 hc         1 DSB       0.028950
     18 H22          0.0560    -2.9020    -3.1960 hc         1 DSB       0.028950
     19 H31          2.2910    -1.5230    -1.6120 hc         1 DSB       0.060700
     20 H32          0.8360    -2.1360    -0.9090 hc         1 DSB       0.060700
     21 H51          1.4970     0.5170    -0.3760 hc         1 DSB       0.064700
     22 H52         -0.1570     0.0470    -0.1480 hc         1 DSB       0.064700
     23 H61         -0.9160     1.9350    -1.6520 hc         1 DSB       0.064700
     24 H62          0.7330     2.4140    -1.9010 hc         1 DSB       0.064700
     25 H81          0.6510     4.6430    -0.7640 hc         1 DSB       0.060700
     26 H82         -1.0470     4.3810    -0.9760 hc         1 DSB       0.060700
     27 H91         -1.3980     4.7610     1.5120 hc         1 DSB       0.028950
     28 H92          0.3050     5.0510     1.6990 hc         1 DSB       0.028950
@<TRIPOS>BOND
     1     1     2 1   
     2     1     3 1   
     3     1     6 1   
     4     3     4 1   
     5     3    17 1   
     6     3    18 1   
     7     4    14 1   
     8     4    19 1   
     9     4    20 1   
    10     5     7 1   
    11     5    14 1   
    12     5    21 1   
    13     5    22 1   
    14     7    13 1   
    15     7    23 1   
    16     7    24 1   
    17     8     9 1   
    18     8    13 1   
    19     8    25 1   
    20     8    26 1   
    21     9    10 1   
    22     9    27 1   
    23     9    28 1   
    24    10    11 1   
    25    10    12 1   
    26    13    16 2   
    27    14    15 2   
@<TRIPOS>SUBSTRUCTURE
     1 DSB         1 TEMP              0 ****  ****    0 ROOT
