@<TRIPOS>MOLECULE
DSC
   41    40     1     0     0
SMALL
No Charge or Current Charge


@<TRIPOS>ATOM
      1 S           -5.8740    -0.0680    -0.0070 s6         1 DSC       1.320600
      2 O1S         -6.8790     1.0040     0.0140 o          1 DSC      -0.699200
      3 O2S         -5.8310    -0.8850     1.2150 o          1 DSC      -0.699200
      4 O3S         -5.8300    -0.8360    -1.2600 o          1 DSC      -0.699200
      5 C1          -4.2990     0.8310     0.0110 c3         1 DSC      -0.355400
      6 C2          -3.0510    -0.0850    -0.0060 c3         1 DSC      -0.031400
      7 C3          -1.7310     0.7150     0.0100 c3         1 DSC      -0.072400
      8 C4          -0.4760    -0.1840    -0.0070 c3         1 DSC      -0.076400
      9 C5           0.8440     0.6190     0.0090 c3         1 DSC      -0.074400
     10 C6           2.0990    -0.2810    -0.0080 c3         1 DSC      -0.074400
     11 C7           3.4180     0.5220     0.0080 c3         1 DSC      -0.074400
     12 C8           4.6740    -0.3770    -0.0100 c3         1 DSC      -0.074400
     13 C9           5.9930     0.4260     0.0060 c3         1 DSC      -0.074400
     14 C10          7.2480    -0.4740    -0.0120 c3         1 DSC      -0.076400
     15 C11          8.5670     0.3290     0.0040 c3         1 DSC      -0.075400
     16 C12          9.8200    -0.5680    -0.0130 c3         1 DSC      -0.088100
     17 H11         -4.3060     1.4480     0.9160 h1         1 DSC       0.061700
     18 H12         -4.3050     1.4830    -0.8690 h1         1 DSC       0.061700
     19 H21         -3.0730    -0.7200    -0.9010 hc         1 DSC       0.047200
     20 H22         -3.0740    -0.7550     0.8630 hc         1 DSC       0.047200
     21 H31         -1.7070     1.3500     0.9050 hc         1 DSC       0.028200
     22 H32         -1.7060     1.3850    -0.8590 hc         1 DSC       0.028200
     23 H41         -0.5000    -0.8190    -0.9020 hc         1 DSC       0.035200
     24 H42         -0.5000    -0.8540     0.8620 hc         1 DSC       0.035200
     25 H51          0.8680     1.2530     0.9040 hc         1 DSC       0.032700
     26 H52          0.8690     1.2880    -0.8600 hc         1 DSC       0.032700
     27 H61          2.0750    -0.9160    -0.9030 hc         1 DSC       0.035700
     28 H62          2.0750    -0.9510     0.8600 hc         1 DSC       0.035700
     29 H71          3.4430     1.1570     0.9030 hc         1 DSC       0.034700
     30 H72          3.4430     1.1920    -0.8610 hc         1 DSC       0.034700
     31 H81          4.6490    -1.0120    -0.9050 hc         1 DSC       0.036200
     32 H82          4.6490    -1.0470     0.8590 hc         1 DSC       0.036200
     33 H91          6.0170     1.0600     0.9010 hc         1 DSC       0.035700
     34 H92          6.0170     1.0950    -0.8630 hc         1 DSC       0.035700
     35 H101         7.2240    -1.1080    -0.9060 hc         1 DSC       0.036700
     36 H102         7.2240    -1.1440     0.8570 hc         1 DSC       0.036700
     37 H111         8.5960     0.9630     0.8990 hc         1 DSC       0.035700
     38 H112         8.5960     0.9990    -0.8640 hc         1 DSC       0.035700
     39 H121        10.7290     0.0450    -0.0010 hc         1 DSC       0.029367
     40 H122         9.8390    -1.2260     0.8630 hc         1 DSC       0.029367
     41 H123         9.8390    -1.1910    -0.9160 hc         1 DSC       0.029367
@<TRIPOS>BOND
     1     1     2 1   
     2     1     3 1   
     3     1     4 1   
     4     1     5 1   
     5     5     6 1   
     6     5    17 1   
     7     5    18 1   
     8     6     7 1   
     9     6    19 1   
    10     6    20 1   
    11     7     8 1   
    12     7    21 1   
    13     7    22 1   
    14     8     9 1   
    15     8    23 1   
    16     8    24 1   
    17     9    10 1   
    18     9    25 1   
    19     9    26 1   
    20    10    11 1   
    21    10    27 1   
    22    10    28 1   
    23    11    12 1   
    24    11    29 1   
    25    11    30 1   
    26    12    13 1   
    27    12    31 1   
    28    12    32 1   
    29    13    14 1   
    30    13    33 1   
    31    13    34 1   
    32    14    15 1   
    33    14    35 1   
    34    14    36 1   
    35    15    16 1   
    36    15    37 1   
    37    15    38 1   
    38    16    39 1   
    39    16    40 1   
    40    16    41 1   
@<TRIPOS>SUBSTRUCTURE
     1 DSC         1 TEMP              0 ****  ****    0 ROOT
