@<TRIPOS>MOLECULE
DSC
   41    40     1     0     0
SMALL
abcg2


@<TRIPOS>ATOM
      1 S           -5.7610    -0.0580    -0.1030 s6         1 DSC       1.320600
      2 O1S         -6.8100     0.9810    -0.0420 o          1 DSC      -0.699200
      3 O2S         -5.7990    -0.9860     1.0470 o          1 DSC      -0.699200
      4 O3S         -5.7190    -0.7580    -1.4040 o          1 DSC      -0.699200
      5 C1          -4.2000     0.8290     0.0280 c3         1 DSC      -0.355400
      6 C2          -2.9830    -0.0830    -0.0010 c3         1 DSC      -0.031400
      7 C3          -1.6810     0.7070     0.0530 c3         1 DSC      -0.072400
      8 C4          -0.4450    -0.1840     0.0370 c3         1 DSC      -0.076400
      9 C5           0.8590     0.6060     0.0450 c3         1 DSC      -0.074400
     10 C6           2.0990    -0.2790     0.0450 c3         1 DSC      -0.074400
     11 C7           3.4010     0.5140     0.0250 c3         1 DSC      -0.074400
     12 C8           4.6440    -0.3670     0.0240 c3         1 DSC      -0.074400
     13 C9           5.9440     0.4260    -0.0080 c3         1 DSC      -0.074400
     14 C10          7.1860    -0.4560    -0.0130 c3         1 DSC      -0.076400
     15 C11          8.4890     0.3330    -0.0470 c3         1 DSC      -0.075400
     16 C12          9.7210    -0.5620    -0.0470 c3         1 DSC      -0.088100
     17 H11         -4.2330     1.4050     0.9560 h1         1 DSC       0.061700
     18 H12         -4.1690     1.5410    -0.8000 h1         1 DSC       0.061700
     19 H21         -3.0030    -0.6890    -0.9100 hc         1 DSC       0.047200
     20 H22         -3.0270    -0.7770     0.8430 hc         1 DSC       0.047200
     21 H31         -1.6670     1.3310     0.9540 hc         1 DSC       0.028200
     22 H32         -1.6400     1.3980    -0.7960 hc         1 DSC       0.028200
     23 H41         -0.4730    -0.8270    -0.8500 hc         1 DSC       0.035200
     24 H42         -0.4710    -0.8570     0.9000 hc         1 DSC       0.035200
     25 H51          0.8810     1.2630     0.9220 hc         1 DSC       0.032700
     26 H52          0.8860     1.2660    -0.8290 hc         1 DSC       0.032700
     27 H61          2.0680    -0.9470    -0.8230 hc         1 DSC       0.035700
     28 H62          2.0830    -0.9280     0.9270 hc         1 DSC       0.035700
     29 H71          3.4320     1.1840     0.8910 hc         1 DSC       0.034700
     30 H72          3.4160     1.1630    -0.8590 hc         1 DSC       0.034700
     31 H81          4.6080    -1.0420    -0.8390 hc         1 DSC       0.036200
     32 H82          4.6330    -1.0110     0.9110 hc         1 DSC       0.036200
     33 H91          5.9810     1.0990     0.8560 hc         1 DSC       0.035700
     34 H92          5.9540     1.0710    -0.8940 hc         1 DSC       0.035700
     35 H101         7.1500    -1.1310    -0.8760 hc         1 DSC       0.036700
     36 H102         7.1770    -1.1010     0.8740 hc         1 DSC       0.036700
     37 H111         8.5260     1.0080     0.8140 hc         1 DSC       0.035700
     38 H112         8.5010     0.9750    -0.9340 hc         1 DSC       0.035700
     39 H121        10.6430     0.0190    -0.0710 hc         1 DSC       0.029367
     40 H122         9.7490    -1.1900     0.8460 hc         1 DSC       0.029367
     41 H123         9.7250    -1.2240    -0.9150 hc         1 DSC       0.029367
@<TRIPOS>BOND
     1     1     2 1   
     2     1     3 1   
     3     1     4 1   
     4     1     5 1   
     5     5     6 1   
     6     5    17 1   
     7     5    18 1   
     8     6     7 1   
     9     6    19 1   
    10     6    20 1   
    11     7     8 1   
    12     7    21 1   
    13     7    22 1   
    14     8     9 1   
    15     8    23 1   
    16     8    24 1   
    17     9    10 1   
    18     9    25 1   
    19     9    26 1   
    20    10    11 1   
    21    10    27 1   
    22    10    28 1   
    23    11    12 1   
    24    11    29 1   
    25    11    30 1   
    26    12    13 1   
    27    12    31 1   
    28    12    32 1   
    29    13    14 1   
    30    13    33 1   
    31    13    34 1   
    32    14    15 1   
    33    14    35 1   
    34    14    36 1   
    35    15    16 1   
    36    15    37 1   
    37    15    38 1   
    38    16    39 1   
    39    16    40 1   
    40    16    41 1   
@<TRIPOS>SUBSTRUCTURE
     1 DSC         1 TEMP              0 ****  ****    0 ROOT
