@<TRIPOS>MOLECULE
DSD
   34    33     1     0     0
SMALL
abcg2


@<TRIPOS>ATOM
      1 C1          -0.2090     0.1530    -5.4290 c          1 DSD       0.714000
      2 O1          -1.2310     0.8480    -5.2620 o          1 DSD      -0.753500
      3 O2           0.2690    -0.2010    -6.5290 o          1 DSD      -0.753500
      4 C2           0.5430    -0.3340    -4.1790 c3         1 DSD      -0.198400
      5 C3           0.0340     0.1830    -2.8440 c3         1 DSD      -0.057400
      6 C4           0.8260    -0.3560    -1.6590 c3         1 DSD      -0.076400
      7 C5           0.3070     0.1330    -0.3120 c3         1 DSD      -0.076400
      8 C6           1.1380    -0.3590     0.8660 c3         1 DSD      -0.081400
      9 C7           0.5490     0.0230     2.2260 c3         1 DSD       0.132700
     10 C8           1.5460    -0.2200     3.3750 c3         1 DSD       0.137500
     11 C9           0.9080     0.0330     4.7390 c3         1 DSD      -0.109100
     12 N7          -0.6970    -0.6630     2.4420 ns         1 DSD      -0.582900
     13 C           -1.9240    -0.0570     2.7090 c          1 DSD       0.743000
     14 O           -1.9330     1.1740     2.9300 o          1 DSD      -0.756000
     15 OXT         -2.9170    -0.8230     2.7150 o          1 DSD      -0.756000
     16 N8           2.7420     0.5900     3.1540 n8         1 DSD      -0.994200
     17 H21          1.6030    -0.0800    -4.2930 hc         1 DSD       0.009200
     18 H22          0.5190    -1.4310    -4.1790 hc         1 DSD       0.009200
     19 H31         -1.0210    -0.0820    -2.7230 hc         1 DSD       0.040700
     20 H32          0.0700     1.2760    -2.8310 hc         1 DSD       0.040700
     21 H41          1.8810    -0.0780    -1.7680 hc         1 DSD       0.012700
     22 H42          0.8050    -1.4520    -1.6760 hc         1 DSD       0.012700
     23 H51         -0.7330    -0.1830    -0.1890 hc         1 DSD       0.048700
     24 H52          0.2930     1.2290    -0.3060 hc         1 DSD       0.048700
     25 H61          2.1530     0.0340     0.7850 hc         1 DSD       0.022700
     26 H62          1.2330    -1.4520     0.8170 hc         1 DSD       0.022700
     27 H7           0.3210     1.0940     2.2220 h1         1 DSD       0.071700
     28 H8           1.8600    -1.2710     3.3330 h1         1 DSD       0.034700
     29 H91          1.6430    -0.1070     5.5340 hc         1 DSD       0.030033
     30 H92          0.5320     1.0570     4.8050 hc         1 DSD       0.030033
     31 H93          0.0740    -0.6400     4.9340 hc         1 DSD       0.030033
     32 HN7         -0.7310    -1.6310     2.1650 hn         1 DSD       0.262500
     33 HN81         2.4890     1.5700     3.2240 hn         1 DSD       0.370500
     34 HN82         3.3970     0.4300     3.9100 hn         1 DSD       0.370500
@<TRIPOS>BOND
     1     1     2 1   
     2     1     3 1   
     3     1     4 1   
     4     4     5 1   
     5     4    17 1   
     6     4    18 1   
     7     5     6 1   
     8     5    19 1   
     9     5    20 1   
    10     6     7 1   
    11     6    21 1   
    12     6    22 1   
    13     7     8 1   
    14     7    23 1   
    15     7    24 1   
    16     8     9 1   
    17     8    25 1   
    18     8    26 1   
    19     9    10 1   
    20     9    12 1   
    21     9    27 1   
    22    10    11 1   
    23    10    16 1   
    24    10    28 1   
    25    11    29 1   
    26    11    30 1   
    27    11    31 1   
    28    12    13 1   
    29    12    32 1   
    30    13    14 1   
    31    13    15 1   
    32    16    33 1   
    33    16    34 1   
@<TRIPOS>SUBSTRUCTURE
     1 DSD         1 TEMP              0 ****  ****    0 ROOT
