@<TRIPOS>MOLECULE
DSD
   34    33     1     0     0
SMALL
No Charge or Current Charge


@<TRIPOS>ATOM
      1 C1          -0.2910     0.0950    -5.4570 c          1 DSD       0.714000
      2 O1          -1.1800    -0.6570    -5.8270 o          1 DSD      -0.753500
      3 O2          -0.1140     1.2100    -5.9240 o          1 DSD      -0.753500
      4 C2           0.6180    -0.3640    -4.3010 c3         1 DSD      -0.198400
      5 C3           0.0070     0.0550    -2.9410 c3         1 DSD      -0.057400
      6 C4           0.8670    -0.3720    -1.7290 c3         1 DSD      -0.076400
      7 C5           0.2570     0.0480    -0.3740 c3         1 DSD      -0.076400
      8 C6           1.1210    -0.3820     0.8380 c3         1 DSD      -0.081400
      9 C7           0.5700     0.0830     2.2180 c3         1 DSD       0.132700
     10 C8           1.5170    -0.2930     3.4170 c3         1 DSD       0.137500
     11 C9           0.9440     0.0850     4.8020 c3         1 DSD      -0.109100
     12 N7          -0.7930    -0.4430     2.4160 ns         1 DSD      -0.582900
     13 C           -1.8980     0.2870     2.7410 c          1 DSD       0.743000
     14 O           -1.8060     1.4910     2.8850 o          1 DSD      -0.756000
     15 OXT         -2.9320    -0.3380     2.8660 o          1 DSD      -0.756000
     16 N8           2.8660     0.3050     3.2960 n8         1 DSD      -0.994200
     17 H21          1.5940     0.1350    -4.3570 hc         1 DSD       0.009200
     18 H22          0.6840    -1.4590    -4.2750 hc         1 DSD       0.009200
     19 H31         -0.9930    -0.3850    -2.8440 hc         1 DSD       0.040700
     20 H32         -0.1210     1.1450    -2.9240 hc         1 DSD       0.040700
     21 H41          1.8670     0.0690    -1.8250 hc         1 DSD       0.012700
     22 H42          0.9940    -1.4620    -1.7440 hc         1 DSD       0.012700
     23 H51         -0.7450    -0.3900    -0.2860 hc         1 DSD       0.048700
     24 H52          0.1320     1.1380    -0.3560 hc         1 DSD       0.048700
     25 H61          2.1300     0.0240     0.6970 hc         1 DSD       0.022700
     26 H62          1.2200    -1.4740     0.8400 hc         1 DSD       0.022700
     27 H7           0.5180     1.1790     2.1840 h1         1 DSD       0.071700
     28 H8           1.6490    -1.3850     3.4050 h1         1 DSD       0.034700
     29 H91          1.6520    -0.1660     5.6010 hc         1 DSD       0.030033
     30 H92          0.7280     1.1590     4.8580 hc         1 DSD       0.030033
     31 H93          0.0160    -0.4620     5.0050 hc         1 DSD       0.030033
     32 HN7         -0.9420    -1.4350     2.3070 hn         1 DSD       0.262500
     33 HN81         2.7850     1.3240     3.3740 hn         1 DSD       0.370500
     34 HN82         3.4190     0.0420     4.1190 hn         1 DSD       0.370500
@<TRIPOS>BOND
     1     1     2 1   
     2     1     3 1   
     3     1     4 1   
     4     4     5 1   
     5     4    17 1   
     6     4    18 1   
     7     5     6 1   
     8     5    19 1   
     9     5    20 1   
    10     6     7 1   
    11     6    21 1   
    12     6    22 1   
    13     7     8 1   
    14     7    23 1   
    15     7    24 1   
    16     8     9 1   
    17     8    25 1   
    18     8    26 1   
    19     9    10 1   
    20     9    12 1   
    21     9    27 1   
    22    10    11 1   
    23    10    16 1   
    24    10    28 1   
    25    11    29 1   
    26    11    30 1   
    27    11    31 1   
    28    12    13 1   
    29    12    32 1   
    30    13    14 1   
    31    13    15 1   
    32    16    33 1   
    33    16    34 1   
@<TRIPOS>SUBSTRUCTURE
     1 DSD         1 TEMP              0 ****  ****    0 ROOT
