@<TRIPOS>MOLECULE
DSE
   16    15     1     0     0
SMALL
No Charge or Current Charge


@<TRIPOS>ATOM
      1 N           50.1220    14.0330    20.3160 n7         1 DSE      -0.836400
      2 CA          50.8520    12.8330    19.7420 c3         1 DSE       0.027500
      3 C           50.4640    12.4450    18.2580 c          1 DSE       0.740000
      4 O           50.9910    13.0350    17.3190 o          1 DSE      -0.729000
      5 OXT         49.6170    11.5730    18.0940 o          1 DSE      -0.729000
      6 CB          52.3930    12.9760    19.9140 c3         1 DSE       0.149600
      7 CN          50.2890    15.3170    19.6030 c3         1 DSE       0.161100
      8 OG          53.0520    11.7230    19.6970 oh         1 DSE      -0.644000
      9 H           50.4320    14.1660    21.2860 hn         1 DSE       0.362000
     10 HA          50.5660    11.9620    20.3470 h1         1 DSE       0.051700
     11 HB2         52.7810    13.7340    19.2220 h1         1 DSE      -0.004800
     12 HB3         52.6060    13.3220    20.9340 h1         1 DSE      -0.004800
     13 HN1         49.7180    16.1080    20.1060 h1         1 DSE       0.015700
     14 HN2         51.3440    15.6220    19.5820 h1         1 DSE       0.015700
     15 HN3         49.9270    15.2440    18.5690 h1         1 DSE       0.015700
     16 HG          54.0130    11.8820    19.8260 ho         1 DSE       0.409000
@<TRIPOS>BOND
     1     1     2 1   
     2     1     7 1   
     3     1     9 1   
     4     2     3 1   
     5     2     6 1   
     6     2    10 1   
     7     3     4 1   
     8     3     5 1   
     9     6     8 1   
    10     6    11 1   
    11     6    12 1   
    12     7    13 1   
    13     7    14 1   
    14     7    15 1   
    15     8    16 1   
@<TRIPOS>SUBSTRUCTURE
     1 DSE         1 TEMP              0 ****  ****    0 ROOT
