@<TRIPOS>MOLECULE
DSE
   16    15     1     0     0
SMALL
abcg2


@<TRIPOS>ATOM
      1 N           50.1120    13.9660    20.2490 n7         1 DSE      -0.836400
      2 CA          50.8950    12.8290    19.7700 c3         1 DSE       0.027500
      3 C           50.4700    12.4950    18.3140 c          1 DSE       0.740000
      4 O           51.1470    12.9930    17.3930 o          1 DSE      -0.729000
      5 OXT         49.4550    11.7810    18.1910 o          1 DSE      -0.729000
      6 CB          52.3970    13.0120    19.9300 c3         1 DSE       0.149600
      7 CN          50.3320    15.2340    19.5780 c3         1 DSE       0.161100
      8 OG          53.0250    11.7710    19.6740 oh         1 DSE      -0.644000
      9 H           50.2890    14.0860    21.2380 hn         1 DSE       0.362000
     10 HA          50.6030    11.9840    20.4040 h1         1 DSE       0.051700
     11 HB2         52.7620    13.7900    19.2520 h1         1 DSE      -0.004800
     12 HB3         52.6060    13.3550    20.9560 h1         1 DSE      -0.004800
     13 HN1         49.7280    15.9970    20.0710 h1         1 DSE       0.015700
     14 HN2         51.3690    15.5930    19.5730 h1         1 DSE       0.015700
     15 HN3         50.0010    15.1820    18.5410 h1         1 DSE       0.015700
     16 HG          53.9760    11.9090    19.6800 ho         1 DSE       0.409000
@<TRIPOS>BOND
     1     1     2 1   
     2     1     7 1   
     3     1     9 1   
     4     2     3 1   
     5     2     6 1   
     6     2    10 1   
     7     3     4 1   
     8     3     5 1   
     9     6     8 1   
    10     6    11 1   
    11     6    12 1   
    12     7    13 1   
    13     7    14 1   
    14     7    15 1   
    15     8    16 1   
@<TRIPOS>SUBSTRUCTURE
     1 DSE         1 TEMP              0 ****  ****    0 ROOT
