@<TRIPOS>MOLECULE
DSF
   12    11     1     0     0
SMALL
No Charge or Current Charge


@<TRIPOS>ATOM
      1 FAA         -2.6370    -0.8350    -0.2300 f          1 DSF      -0.124000
      2 FAB         -2.3770     1.0970     0.7330 f          1 DSF      -0.124000
      3 FAC         -0.0330    -1.5150     0.4970 f          1 DSF      -0.228000
      4 FAD          1.8330     1.4600    -0.0780 f          1 DSF      -0.096333
      5 FAE          1.9800    -0.4250    -1.1750 f          1 DSF      -0.096333
      6 FAF          2.4630    -0.3450     0.9690 f          1 DSF      -0.096333
      7 OAG         -0.7060     0.3610    -0.6780 os         1 DSF      -0.494000
      8 CAH         -2.1240     0.4060    -0.4030 c3         1 DSF       0.392300
      9 CAI          0.1410    -0.1750     0.3700 c3         1 DSF       0.361300
     10 CAJ          1.6260     0.1240     0.0130 c3         1 DSF       0.289000
     11 HAH         -2.6580     0.8870    -1.2290 h3         1 DSF       0.120700
     12 HAI         -0.0780     0.2970     1.3350 h2         1 DSF       0.095700
@<TRIPOS>BOND
     1     1     8 1   
     2     2     8 1   
     3     3     9 1   
     4     4    10 1   
     5     5    10 1   
     6     6    10 1   
     7     7     8 1   
     8     7     9 1   
     9     8    11 1   
    10     9    10 1   
    11     9    12 1   
@<TRIPOS>SUBSTRUCTURE
     1 DSF         1 TEMP              0 ****  ****    0 ROOT
