@<TRIPOS>MOLECULE
DSF
   12    11     1     0     0
SMALL
bcc


@<TRIPOS>ATOM
      1 FAA         -2.6380    -0.5790     0.2150 f          1 DSF      -0.245300
      2 FAB         -2.0600     1.4820     0.4740 f          1 DSF      -0.245300
      3 FAC          0.1520    -1.7010     0.2890 f          1 DSF      -0.209300
      4 FAD          1.5260     1.5110     0.0960 f          1 DSF      -0.217633
      5 FAE          1.9190    -0.1860    -1.1760 f          1 DSF      -0.217633
      6 FAF          2.3730    -0.2890     0.9280 f          1 DSF      -0.217633
      7 OAG         -0.7160     0.1270    -0.6830 os         1 DSF      -0.447600
      8 CAH         -2.0100     0.4490    -0.3930 c3         1 DSF       0.611700
      9 CAI          0.1010    -0.3380     0.3300 c3         1 DSF       0.319400
     10 CAJ          1.5060     0.1810     0.0340 c3         1 DSF       0.652900
     11 HAH         -2.5150     0.7080    -1.3200 h3         1 DSF       0.120700
     12 HAI         -0.2090    -0.0280     1.3310 h2         1 DSF       0.095700
@<TRIPOS>BOND
     1     1     8 1   
     2     2     8 1   
     3     3     9 1   
     4     4    10 1   
     5     5    10 1   
     6     6    10 1   
     7     7     8 1   
     8     7     9 1   
     9     8    11 1   
    10     9    10 1   
    11     9    12 1   
@<TRIPOS>SUBSTRUCTURE
     1 DSF         1 TEMP              0 ****  ****    0 ROOT
