@<TRIPOS>MOLECULE
DSG
   16    14     1     0     0
SMALL
No Charge or Current Charge


@<TRIPOS>ATOM
      1 N            4.3400    -4.4440     1.5150 n8         1 DSG      -0.316000
      2 CA           5.0810    -3.2070     1.7820 c3         1 DSG      -0.162000
      3 C            5.1930    -2.4310     0.5430 c1         1 DSG      -0.088000
      4 O            5.2820    -1.8050    -0.4460 o          1 DSG      -0.361000
      5 CB           4.4390    -2.4070     2.9490 c3         1 DSG      -0.167000
      6 CG           2.9920    -1.9950     2.7420 c          1 DSG       0.328000
      7 OD1          2.0840    -2.5860     3.3150 o          1 DSG      -0.445000
      8 ND2          2.7120    -0.8770     1.9640 nt         1 DSG      -0.431000
      9 OXT        -13.9300     1.8360     1.6280 os         1 DSG      -0.332000
     10 H            3.4030    -4.2190     1.1820 hn         1 DSG       0.123000
     11 H2           4.7920    -4.9620     0.7620 hn         1 DSG       0.123000
     12 HA           6.0970    -3.4980     2.0860 h1         1 DSG       0.073000
     13 HB2          4.5110    -3.0090     3.8630 hc         1 DSG       0.092000
     14 HB3          5.0440    -1.5140     3.1450 hc         1 DSG       0.092000
     15 HD21         3.4530    -0.4440     1.4300 hn         1 DSG       0.235500
     16 HD22         1.7540    -0.5820     1.8370 hn         1 DSG       0.235500
@<TRIPOS>BOND
     1     1     2 1   
     2     1    10 1   
     3     1    11 1   
     4     2     3 1   
     5     2     5 1   
     6     2    12 1   
     7     3     4 1   
     8     5     6 1   
     9     5    13 1   
    10     5    14 1   
    11     6     7 1   
    12     6     8 1   
    13     8    15 1   
    14     8    16 1   
@<TRIPOS>SUBSTRUCTURE
     1 DSG         1 TEMP              0 ****  ****    0 ROOT
