@<TRIPOS>MOLECULE
DSG
   16    14     1     0     0
SMALL
bcc


@<TRIPOS>ATOM
      1 N            3.3710    -4.1160     1.7700 n8         1 DSG      -0.316000
      2 CA           3.8630    -2.8570     1.3110 c3         1 DSG      -0.162000
      3 C            2.9840    -2.2250     0.0720 c1         1 DSG      -0.088000
      4 O            3.2060    -1.0890    -0.1850 o          1 DSG      -0.361000
      5 CB           3.9920    -1.8380     2.4270 c3         1 DSG      -0.167000
      6 CG           2.8070    -1.6840     3.3740 c2         1 DSG       0.328000
      7 OD1          2.9920    -1.6220     4.5860 o          1 DSG      -0.445000
      8 ND2          1.5970    -1.6600     2.8120 nt         1 DSG      -0.431000
      9 OXT          0.5870    -0.9880    -0.0270 os         1 DSG      -0.332000
     10 H            2.3980    -4.0450     2.0430 hn         1 DSG       0.123000
     11 H2           3.3830    -4.7980     1.0210 hn         1 DSG       0.123000
     12 HA           4.8440    -2.9870     0.8450 h1         1 DSG       0.073000
     13 HB2          4.8290    -2.1000     3.0650 hc         1 DSG       0.092000
     14 HB3          4.2210    -0.8740     1.9670 hc         1 DSG       0.092000
     15 HD21         1.3900    -1.5920     1.8110 hn         1 DSG       0.235500
     16 HD22         0.7810    -1.6690     3.4050 hn         1 DSG       0.235500
@<TRIPOS>BOND
     1     1     2 1   
     2     1    10 1   
     3     1    11 1   
     4     2     3 1   
     5     2     5 1   
     6     2    12 1   
     7     3     4 1   
     8     5     6 1   
     9     5    13 1   
    10     5    14 1   
    11     6     7 1   
    12     6     8 1   
    13     8    15 1   
    14     8    16 1   
@<TRIPOS>SUBSTRUCTURE
     1 DSG         1 TEMP              0 ****  ****    0 ROOT
