@<TRIPOS>MOLECULE
DSH
   43    45     1     0     0
SMALL
No Charge or Current Charge


@<TRIPOS>ATOM
      1 N            5.4870    -3.7870     0.2800 n8         1 DSH      -0.993200
      2 N1          -2.9980    -2.2950     1.4280 nb         1 DSH      -0.303000
      3 C2          -3.2950    -0.9760     1.5060 ca         1 DSH       0.179900
      4 N3          -2.6590     0.0350     0.8670 nb         1 DSH      -0.213000
      5 C4          -1.6260    -0.3220     0.0760 ca         1 DSH       0.135500
      6 C5          -1.2480    -1.6320    -0.0750 ca         1 DSH      -0.100600
      7 C6          -1.9670    -2.6180     0.6340 ca         1 DSH       0.449900
      8 N6          -1.6730    -3.9430     0.5460 nv         1 DSH      -1.067900
      9 N7          -0.1780    -1.7800    -0.9500 nc         1 DSH      -0.559100
     10 C8           0.0640    -0.5060    -1.3120 cd         1 DSH       0.410700
     11 N9          -0.7850     0.4360    -0.7000 na         1 DSH      -0.294300
     12 CA           4.5820    -2.7880     0.8770 c3         1 DSH       0.151800
     13 CB           4.3740    -1.5780    -0.0560 c3         1 DSH      -0.069400
     14 SD           3.2270     0.9020    -0.6100 ss         1 DSH      -0.386000
     15 CG           3.4430    -0.5140     0.5560 c3         1 DSH       0.051600
     16 C1          -0.7900     1.8860    -0.9130 c5         1 DSH       0.318300
     17 C7          -0.9600     2.7820     0.3800 c5         1 DSH       0.079300
     18 O2          -2.2260     3.4710     0.4600 oh         1 DSH      -0.689000
     19 C3           0.2090     3.8080     0.2570 c5         1 DSH       0.111300
     20 O3          -0.2440     4.9530    -0.4720 oh         1 DSH      -0.702000
     21 C9           1.2650     2.9620    -0.5160 c5         1 DSH       0.180300
     22 O4           0.4620     2.2930    -1.5170 os         1 DSH      -0.430000
     23 C10          2.0320     1.9310     0.3610 c3         1 DSH       0.021600
     24 HN           5.5560    -4.5950     0.9110 hn         1 DSH       0.394000
     25 HNA          5.0460    -4.1780    -0.5610 hn         1 DSH       0.394000
     26 HN6         -2.3890    -4.6080     0.8240 hn         1 DSH       0.506000
     27 HN6A        -1.0530    -4.2270    -0.2090 hn         1 DSH       0.506000
     28 H8           0.8320    -0.1940    -2.0110 h5         1 DSH       0.080800
     29 HA           3.6150    -3.2670     1.0840 h1         1 DSH       0.025700
     30 HB           5.3450    -1.1190    -0.2780 hc         1 DSH       0.063200
     31 HG           2.4610    -0.9590     0.7660 h1         1 DSH       0.054200
     32 HGA          3.8670    -0.1430     1.4980 h1         1 DSH       0.054200
     33 H1          -1.6080     2.0800    -1.6180 h2         1 DSH       0.123700
     34 H2          -0.8090     2.1700     1.2810 h1         1 DSH       0.054700
     35 HO2         -2.8960     2.8240     0.7900 ho         1 DSH       0.514000
     36 H3           0.5820     4.1090     1.2460 h1         1 DSH       0.055700
     37 HO3         -1.2280     4.8960    -0.3580 ho         1 DSH       0.525000
     38 H4           2.0030     3.6060    -1.0150 h1         1 DSH       0.109700
     39 H5           1.3210     1.2640     0.8640 h1         1 DSH       0.060700
     40 H5'A         2.5890     2.4680     1.1400 h1         1 DSH       0.060700
     41 HAA          5.0140    -2.4490     1.8290 h1         1 DSH       0.025700
     42 HBA          3.9490    -1.9200    -1.0070 hc         1 DSH       0.063200
     43 H6          -4.1300    -0.7000     2.1470 h5         1 DSH       0.045100
@<TRIPOS>BOND
     1     1    12 1   
     2     1    24 1   
     3     1    25 1   
     4     2     3 ar  
     5     2     7 ar  
     6     3     4 ar  
     7     3    43 1   
     8     4     5 ar  
     9     5     6 ar  
    10     5    11 1   
    11     6     7 ar  
    12     6     9 1   
    13     7     8 1   
    14     8    26 1   
    15     8    27 1   
    16     9    10 2   
    17    10    11 1   
    18    10    28 1   
    19    11    16 1   
    20    12    13 1   
    21    12    29 1   
    22    12    41 1   
    23    13    15 1   
    24    13    30 1   
    25    13    42 1   
    26    14    15 1   
    27    14    23 1   
    28    15    31 1   
    29    15    32 1   
    30    16    17 1   
    31    16    22 1   
    32    16    33 1   
    33    17    18 1   
    34    17    19 1   
    35    17    34 1   
    36    18    35 1   
    37    19    20 1   
    38    19    21 1   
    39    19    36 1   
    40    20    37 1   
    41    21    22 1   
    42    21    23 1   
    43    21    38 1   
    44    23    39 1   
    45    23    40 1   
@<TRIPOS>SUBSTRUCTURE
     1 DSH         1 TEMP              0 ****  ****    0 ROOT
