@<TRIPOS>MOLECULE
DSH
   43    45     1     0     0
SMALL
bcc


@<TRIPOS>ATOM
      1 N            6.6520    -3.2830     0.0060 n8         1 DSH      -0.882800
      2 N1          -4.8160    -1.7160    -0.3450 nb         1 DSH      -0.829000
      3 C2          -4.7460    -0.4080    -0.5830 ca         1 DSH       0.705900
      4 N3          -3.6820     0.3750    -0.5710 nb         1 DSH      -0.739000
      5 C4          -2.5750    -0.3050    -0.2820 ca         1 DSH       0.463800
      6 C5          -2.4870    -1.6630    -0.0180 ca         1 DSH      -0.231200
      7 C6          -3.6940    -2.3850    -0.0570 ca         1 DSH       0.778200
      8 N6          -3.7590    -3.6960     0.1820 nv         1 DSH      -0.957500
      9 N7          -1.1890    -2.0300     0.2240 nc         1 DSH      -0.559100
     10 C8          -0.5130    -0.9250     0.1150 cd         1 DSH       0.410700
     11 N9          -1.2940     0.1580    -0.1900 na         1 DSH      -0.265000
     12 CA           6.0890    -2.0790     0.5970 c3         1 DSH       0.151800
     13 CB           4.9620    -1.5340    -0.2700 c3         1 DSH      -0.069400
     14 SD           2.9970     0.3150    -0.7250 ss         1 DSH      -0.290200
     15 CG           4.3500    -0.2780     0.3310 c3         1 DSH       0.003700
     16 C1          -0.8730     1.5310    -0.3480 c5         1 DSH       0.265800
     17 C7          -0.6270     2.2570     0.9780 c5         1 DSH       0.056100
     18 O2          -1.8180     2.8210     1.4390 oh         1 DSH      -0.566800
     19 C3           0.4480     3.2690     0.5690 c5         1 DSH       0.088100
     20 O3          -0.1170     4.3390    -0.1400 oh         1 DSH      -0.579800
     21 C9           1.2780     2.4250    -0.3890 c5         1 DSH       0.157100
     22 O4           0.3400     1.5650    -1.0420 os         1 DSH      -0.383600
     23 C10          2.3480     1.6290     0.3420 c3         1 DSH      -0.026300
     24 HN           7.4330    -3.5990     0.5670 hn         1 DSH       0.338800
     25 HNA          5.9680    -4.0280     0.0520 hn         1 DSH       0.338800
     26 HN6         -4.6400    -4.1770     0.1390 hn         1 DSH       0.450800
     27 HN6A        -2.9330    -4.2270     0.3950 hn         1 DSH       0.450800
     28 H8           0.5610    -0.8440     0.2100 h5         1 DSH       0.080800
     29 HA           5.7130    -2.2240     1.6200 h1         1 DSH       0.025700
     30 HB           5.3470    -1.3240    -1.2710 hc         1 DSH       0.063200
     31 HG           3.9500    -0.4880     1.3260 h1         1 DSH       0.054200
     32 HGA          5.1020     0.5070     0.4300 h1         1 DSH       0.054200
     33 H1          -1.6680     2.0320    -0.9100 h2         1 DSH       0.123700
     34 H2          -0.2030     1.5570     1.7080 h1         1 DSH       0.054700
     35 HO2         -1.7360     2.9910     2.3830 ho         1 DSH       0.415000
     36 H3           1.0410     3.6120     1.4270 h1         1 DSH       0.055700
     37 HO3         -0.9030     4.6300     0.3380 ho         1 DSH       0.426000
     38 H4           1.7530     3.0410    -1.1570 h1         1 DSH       0.109700
     39 H5           1.9690     1.1850     1.2670 h1         1 DSH       0.060700
     40 H5'A         3.1580     2.3080     0.6140 h1         1 DSH       0.060700
     41 HAA          6.8820    -1.3290     0.6660 h1         1 DSH       0.025700
     42 HBA          4.1860    -2.2980    -0.3790 hc         1 DSH       0.063200
     43 H6          -5.6900     0.0730    -0.8160 h5         1 DSH       0.045100
@<TRIPOS>BOND
     1     1    12 1   
     2     1    24 1   
     3     1    25 1   
     4     2     3 ar  
     5     2     7 ar  
     6     3     4 ar  
     7     3    43 1   
     8     4     5 ar  
     9     5     6 ar  
    10     5    11 1   
    11     6     7 ar  
    12     6     9 1   
    13     7     8 1   
    14     8    26 1   
    15     8    27 1   
    16     9    10 2   
    17    10    11 1   
    18    10    28 1   
    19    11    16 1   
    20    12    13 1   
    21    12    29 1   
    22    12    41 1   
    23    13    15 1   
    24    13    30 1   
    25    13    42 1   
    26    14    15 1   
    27    14    23 1   
    28    15    31 1   
    29    15    32 1   
    30    16    17 1   
    31    16    22 1   
    32    16    33 1   
    33    17    18 1   
    34    17    19 1   
    35    17    34 1   
    36    18    35 1   
    37    19    20 1   
    38    19    21 1   
    39    19    36 1   
    40    20    37 1   
    41    21    22 1   
    42    21    23 1   
    43    21    38 1   
    44    23    39 1   
    45    23    40 1   
@<TRIPOS>SUBSTRUCTURE
     1 DSH         1 TEMP              0 ****  ****    0 ROOT
