@<TRIPOS>MOLECULE
DSJ
   20    20     1     0     0
SMALL
No Charge or Current Charge


@<TRIPOS>ATOM
      1 C7           0.1820    -1.0160     0.1000 ca         1 DSJ       0.273100
      2 C4           1.5630     1.4070     0.0090 ca         1 DSJ      -0.253000
      3 C5           2.2650     0.2040     0.0470 ca         1 DSJ       0.399000
      4 C6           1.5790    -1.0040     0.0920 ca         1 DSJ      -0.280000
      5 C3           0.1600     1.4080     0.0160 ca         1 DSJ       0.026000
      6 C2          -0.5560     0.1880     0.0620 ca         1 DSJ      -0.362600
      7 C1          -2.0700     0.1810     0.0690 c          1 DSJ       0.611700
      8 O           -2.6820    -0.8810     0.1090 o          1 DSJ      -0.592100
      9 C           -2.8480     1.4960     0.0280 c3         1 DSJ      -0.187100
     10 O1          -0.4480    -2.2160     0.1440 oh         1 DSJ      -0.550100
     11 N            3.6260     0.2110     0.0390 nv         1 DSJ      -1.097000
     12 H4           2.0980     2.3510    -0.0240 ha         1 DSJ       0.115000
     13 H7           2.1240    -1.9420     0.1230 ha         1 DSJ       0.130000
     14 H3          -0.3520     2.3680    -0.0140 ha         1 DSJ       0.108000
     15 H1          -2.5350     2.0700    -0.8510 hc         1 DSJ       0.062033
     16 H2          -3.9330     1.3410     0.0380 hc         1 DSJ       0.062033
     17 H           -2.5270     2.1290     0.8610 hc         1 DSJ       0.062033
     18 H8          -1.4160    -2.0010     0.1420 ho         1 DSJ       0.520000
     19 H5           4.1110     1.0750    -0.1960 hn         1 DSJ       0.476000
     20 H6           4.1240    -0.6580    -0.1390 hn         1 DSJ       0.476000
@<TRIPOS>BOND
     1     1     4 ar  
     2     1     6 ar  
     3     1    10 1   
     4     2     3 ar  
     5     2     5 ar  
     6     2    12 1   
     7     3     4 ar  
     8     3    11 1   
     9     4    13 1   
    10     5     6 ar  
    11     5    14 1   
    12     6     7 1   
    13     7     8 2   
    14     7     9 1   
    15     9    15 1   
    16     9    16 1   
    17     9    17 1   
    18    10    18 1   
    19    11    19 1   
    20    11    20 1   
@<TRIPOS>SUBSTRUCTURE
     1 DSJ         1 TEMP              0 ****  ****    0 ROOT
