@<TRIPOS>MOLECULE
DSJ
   20    20     1     0     0
SMALL
bcc


@<TRIPOS>ATOM
      1 C7           0.1600    -1.0090     0.1030 ca         1 DSJ       0.273100
      2 C4           1.5360     1.4220     0.0130 ca         1 DSJ      -0.271000
      3 C5           2.2550     0.2040     0.0390 ca         1 DSJ       0.260600
      4 C6           1.5460    -1.0010     0.0840 ca         1 DSJ      -0.298000
      5 C3           0.1670     1.4050     0.0280 ca         1 DSJ       0.008000
      6 C2          -0.5700     0.2080     0.0720 ca         1 DSJ      -0.362600
      7 C1          -2.0200     0.1890     0.0770 c          1 DSJ       0.611700
      8 O           -2.6420    -0.8780     0.1250 o          1 DSJ      -0.592100
      9 C           -2.7760     1.4870     0.0190 c3         1 DSJ      -0.187100
     10 O1          -0.4590    -2.1860     0.1470 oh         1 DSJ      -0.511100
     11 N            3.6070     0.2130     0.0530 nv         1 DSJ      -0.848200
     12 H4           2.0720     2.3620    -0.0230 ha         1 DSJ       0.133000
     13 H7           2.0810    -1.9430     0.1020 ha         1 DSJ       0.148000
     14 H3          -0.3590     2.3500     0.0020 ha         1 DSJ       0.126000
     15 H1          -2.5140     2.0530    -0.8750 hc         1 DSJ       0.062033
     16 H2          -3.8470     1.2980     0.0120 hc         1 DSJ       0.062033
     17 H           -2.5370     2.1160     0.8780 hc         1 DSJ       0.062033
     18 H8          -1.4300    -1.9980     0.1520 ho         1 DSJ       0.481000
     19 H5           4.0910     1.0570    -0.2030 hn         1 DSJ       0.420800
     20 H6           4.1030    -0.6380    -0.1490 hn         1 DSJ       0.420800
@<TRIPOS>BOND
     1     1     4 ar  
     2     1     6 ar  
     3     1    10 1   
     4     2     3 ar  
     5     2     5 ar  
     6     2    12 1   
     7     3     4 ar  
     8     3    11 1   
     9     4    13 1   
    10     5     6 ar  
    11     5    14 1   
    12     6     7 1   
    13     7     8 2   
    14     7     9 1   
    15     9    15 1   
    16     9    16 1   
    17     9    17 1   
    18    10    18 1   
    19    11    19 1   
    20    11    20 1   
@<TRIPOS>SUBSTRUCTURE
     1 DSJ         1 TEMP              0 ****  ****    0 ROOT
