@<TRIPOS>MOLECULE
DSM
   42    44     1     0     0
SMALL
bcc


@<TRIPOS>ATOM
      1 C18          6.1270    -0.3620     0.1750 c3         1 DSM       0.144100
      2 N2           4.8360     0.0920    -0.3000 n7         1 DSM      -0.800200
      3 C17          3.7350    -0.5830     0.3580 c3         1 DSM       0.156800
      4 C16          2.3950    -0.0700    -0.1440 c3         1 DSM      -0.092400
      5 C15          1.2400    -0.7620     0.5670 c3         1 DSM       0.221800
      6 N1          -0.0530    -0.3400     0.0520 nh         1 DSM      -0.573400
      7 C14         -1.1450    -1.2220     0.1730 ca         1 DSM       0.158600
      8 C1          -1.1300    -2.1930     1.1830 ca         1 DSM      -0.168000
      9 C2          -2.1650    -3.0990     1.3410 ca         1 DSM      -0.114000
     10 C3          -3.2640    -3.0400     0.4980 ca         1 DSM      -0.143000
     11 C4          -3.2890    -2.0770    -0.4970 ca         1 DSM      -0.115500
     12 C13         -2.2500    -1.1670    -0.6960 ca         1 DSM      -0.084800
     13 C5          -2.4260    -0.2220    -1.8650 c3         1 DSM      -0.019600
     14 C6          -1.2720     0.7110    -2.2100 c3         1 DSM      -0.019600
     15 C12         -0.9360     1.6090    -1.0630 ca         1 DSM      -0.084800
     16 C11         -0.3350     1.0460     0.0640 ca         1 DSM       0.158600
     17 C7          -1.2260     2.9690    -1.0660 ca         1 DSM      -0.115500
     18 C8          -0.9010     3.7720     0.0190 ca         1 DSM      -0.143000
     19 C9          -0.2850     3.2090     1.1290 ca         1 DSM      -0.114000
     20 C10         -0.0110     1.8490     1.1550 ca         1 DSM      -0.168000
     21 H181         6.9220     0.2150    -0.2980 h1         1 DSM       0.029033
     22 H182         6.2570    -0.2850     1.2640 h1         1 DSM       0.029033
     23 H183         6.2750    -1.4090    -0.0960 h1         1 DSM       0.029033
     24 HN2          4.7560     1.0870    -0.1260 hn         1 DSM       0.350800
     25 H171         3.8190    -1.6550     0.1520 h1         1 DSM       0.026700
     26 H172         3.7770    -0.4820     1.4560 h1         1 DSM       0.026700
     27 H161         2.3470     1.0120     0.0130 hc         1 DSM       0.059200
     28 H162         2.3110    -0.2390    -1.2200 hc         1 DSM       0.059200
     29 H151         1.3250    -1.8360     0.3900 h1         1 DSM       0.035200
     30 H152         1.3360    -0.6220     1.6530 h1         1 DSM       0.035200
     31 H1          -0.2970    -2.2360     1.8720 ha         1 DSM       0.130000
     32 H2          -2.1150    -3.8350     2.1330 ha         1 DSM       0.129000
     33 H3          -4.0880    -3.7320     0.6100 ha         1 DSM       0.131500
     34 H4          -4.1400    -2.0340    -1.1670 ha         1 DSM       0.128000
     35 H51         -2.6620    -0.8240    -2.7470 hc         1 DSM       0.049700
     36 H52         -3.3150     0.3900    -1.6830 hc         1 DSM       0.049700
     37 H61         -0.3910     0.1320    -2.4980 hc         1 DSM       0.049700
     38 H62         -1.5610     1.3050    -3.0790 hc         1 DSM       0.049700
     39 H7          -1.6980     3.4060    -1.9380 ha         1 DSM       0.128000
     40 H8          -1.1210     4.8320    -0.0040 ha         1 DSM       0.131500
     41 H9          -0.0250     3.8250     1.9790 ha         1 DSM       0.129000
     42 H10          0.4580     1.4140     2.0290 ha         1 DSM       0.130000
@<TRIPOS>BOND
     1     1     2 1   
     2     1    21 1   
     3     1    22 1   
     4     1    23 1   
     5     2     3 1   
     6     2    24 1   
     7     3     4 1   
     8     3    25 1   
     9     3    26 1   
    10     4     5 1   
    11     4    27 1   
    12     4    28 1   
    13     5     6 1   
    14     5    29 1   
    15     5    30 1   
    16     6     7 1   
    17     6    16 1   
    18     7     8 ar  
    19     7    12 ar  
    20     8     9 ar  
    21     8    31 1   
    22     9    10 ar  
    23     9    32 1   
    24    10    11 ar  
    25    10    33 1   
    26    11    12 ar  
    27    11    34 1   
    28    12    13 1   
    29    13    14 1   
    30    13    35 1   
    31    13    36 1   
    32    14    15 1   
    33    14    37 1   
    34    14    38 1   
    35    15    16 ar  
    36    15    17 ar  
    37    16    20 ar  
    38    17    18 ar  
    39    17    39 1   
    40    18    19 ar  
    41    18    40 1   
    42    19    20 ar  
    43    19    41 1   
    44    20    42 1   
@<TRIPOS>SUBSTRUCTURE
     1 DSM         1 TEMP              0 ****  ****    0 ROOT
