@<TRIPOS>MOLECULE
DSM
   42    44     1     0     0
SMALL
No Charge or Current Charge


@<TRIPOS>ATOM
      1 C18          6.1340    -0.3910    -0.1900 c3         1 DSM       0.144100
      2 N2           4.7600     0.0940    -0.4230 n7         1 DSM      -0.855400
      3 C17          3.7130    -0.5990     0.3500 c3         1 DSM       0.156800
      4 C16          2.3270    -0.0240     0.0090 c3         1 DSM      -0.092400
      5 C15          1.1940    -0.7290     0.7880 c3         1 DSM       0.221800
      6 N1          -0.1780    -0.2740     0.4460 nh         1 DSM      -0.850200
      7 C14         -1.2270    -1.2310     0.3410 ca         1 DSM       0.297000
      8 C1          -1.2910    -2.2340     1.3360 ca         1 DSM      -0.150000
      9 C2          -2.2950    -3.2130     1.3300 ca         1 DSM      -0.096000
     10 C3          -3.2650    -3.2040     0.3240 ca         1 DSM      -0.125000
     11 C4          -3.2270    -2.2190    -0.6720 ca         1 DSM      -0.097500
     12 C13         -2.2210    -1.2270    -0.6880 ca         1 DSM      -0.084800
     13 C5          -2.3060    -0.2300    -1.8560 c3         1 DSM      -0.019600
     14 C6          -1.0840     0.6640    -2.1210 c3         1 DSM      -0.019600
     15 C12         -0.8450     1.6170    -0.9650 ca         1 DSM      -0.084800
     16 C11         -0.4150     1.1070     0.2750 ca         1 DSM       0.297000
     17 C7          -1.0490     3.0030    -1.1250 ca         1 DSM      -0.097500
     18 C8          -0.8200     3.8790    -0.0510 ca         1 DSM      -0.125000
     19 C9          -0.3850     3.3750     1.1850 ca         1 DSM      -0.096000
     20 C10         -0.1810     1.9940     1.3430 ca         1 DSM      -0.150000
     21 H181         6.8510     0.1670    -0.8070 h1         1 DSM       0.029033
     22 H182         6.4210    -0.2650     0.8630 h1         1 DSM       0.029033
     23 H183         6.2220    -1.4560    -0.4450 h1         1 DSM       0.029033
     24 HN2          4.7290     1.0930    -0.1820 hn         1 DSM       0.406000
     25 H171         3.7200    -1.6740     0.1220 h1         1 DSM       0.026700
     26 H172         3.8940    -0.4830     1.4280 h1         1 DSM       0.026700
     27 H161         2.3180     1.0490     0.2360 hc         1 DSM       0.059200
     28 H162         2.1430    -0.1340    -1.0660 hc         1 DSM       0.059200
     29 H151         1.2800    -1.8040     0.5760 h1         1 DSM       0.035200
     30 H152         1.3650    -0.5980     1.8650 h1         1 DSM       0.035200
     31 H1          -0.5610    -2.2490     2.1400 ha         1 DSM       0.112000
     32 H2          -2.3230    -3.9720     2.1090 ha         1 DSM       0.111000
     33 H3          -4.0490    -3.9590     0.3150 ha         1 DSM       0.113500
     34 H4          -3.9900    -2.2280    -1.4480 ha         1 DSM       0.110000
     35 H51         -2.5060    -0.7840    -2.7800 hc         1 DSM       0.049700
     36 H52         -3.1770     0.4200    -1.7060 hc         1 DSM       0.049700
     37 H61         -0.2010     0.0370    -2.2970 hc         1 DSM       0.049700
     38 H62         -1.2500     1.2230    -3.0500 hc         1 DSM       0.049700
     39 H7          -1.3840     3.4010    -2.0800 ha         1 DSM       0.110000
     40 H8          -0.9790     4.9470    -0.1780 ha         1 DSM       0.113500
     41 H9          -0.2050     4.0520     2.0170 ha         1 DSM       0.111000
     42 H10          0.1560     1.6070     2.3000 ha         1 DSM       0.112000
@<TRIPOS>BOND
     1     1     2 1   
     2     1    21 1   
     3     1    22 1   
     4     1    23 1   
     5     2     3 1   
     6     2    24 1   
     7     3     4 1   
     8     3    25 1   
     9     3    26 1   
    10     4     5 1   
    11     4    27 1   
    12     4    28 1   
    13     5     6 1   
    14     5    29 1   
    15     5    30 1   
    16     6     7 1   
    17     6    16 1   
    18     7     8 ar  
    19     7    12 ar  
    20     8     9 ar  
    21     8    31 1   
    22     9    10 ar  
    23     9    32 1   
    24    10    11 ar  
    25    10    33 1   
    26    11    12 ar  
    27    11    34 1   
    28    12    13 1   
    29    13    14 1   
    30    13    35 1   
    31    13    36 1   
    32    14    15 1   
    33    14    37 1   
    34    14    38 1   
    35    15    16 ar  
    36    15    17 ar  
    37    16    20 ar  
    38    17    18 ar  
    39    17    39 1   
    40    18    19 ar  
    41    18    40 1   
    42    19    20 ar  
    43    19    41 1   
    44    20    42 1   
@<TRIPOS>SUBSTRUCTURE
     1 DSM         1 TEMP              0 ****  ****    0 ROOT
