@<TRIPOS>MOLECULE
DSO
   83    87     1     0     0
SMALL
abcg2


@<TRIPOS>ATOM
      1 C1           2.0700     0.2460    10.8150 c6         1 DSO      -0.068733
      2 C2           0.6790    -0.3260    11.0870 c6         1 DSO      -0.060033
      3 C3          -0.3190     0.8150    11.2810 c6         1 DSO      -0.068733
      4 C4           0.2450    -1.1920     9.9020 c6         1 DSO      -0.058733
      5 C5           2.0270     1.1050     9.5500 c6         1 DSO      -0.060033
      6 C6           1.0260     2.2470     9.7370 c6         1 DSO      -0.068733
      7 C7           1.5950     0.2400     8.3620 c6         1 DSO      -0.058733
      8 C8          -0.3630     1.6700    10.0140 c6         1 DSO      -0.060033
      9 C9           0.1930    -0.3520     8.6190 c6         1 DSO      -0.123000
     10 C10         -0.7990     0.8090     8.8250 c6         1 DSO      -0.058733
     11 C11          2.2900    -1.8120    -7.4140 ca         1 DSO      -0.167000
     12 C12          1.0270    -2.3420    -7.1030 ca         1 DSO      -0.066000
     13 C13         -0.0400    -1.5360    -6.8210 ca         1 DSO      -0.127000
     14 C14          2.4860    -0.4530    -7.4620 ca         1 DSO       0.284000
     15 C15          1.3670     0.4150    -7.2440 ca         1 DSO      -0.067000
     16 C16          0.1000    -0.1290    -6.8880 ca         1 DSO       0.067000
     17 C17         -0.9600     0.7950    -6.6440 ca         1 DSO      -0.263500
     18 C18         -0.7880     2.1480    -6.7820 ca         1 DSO       0.004000
     19 C19          0.4510     2.6590    -7.1970 ca         1 DSO      -0.155000
     20 C20          1.4960     1.8110    -7.4280 ca         1 DSO      -0.025000
     21 C22          4.3900     0.7720    -6.6240 c3         1 DSO       0.171600
     22 C23          4.6580    -0.6930    -8.5050 c3         1 DSO       0.171600
     23 C24         -0.2150    -1.2320     7.4390 c          1 DSO       0.603100
     24 N25         -0.4010    -0.6020     6.2680 ns         1 DSO      -0.509900
     25 C26         -0.7060    -1.3060     5.0390 c3         1 DSO       0.105000
     26 C27         -0.7710    -0.3440     3.8640 c3         1 DSO      -0.094400
     27 C28         -1.0150    -1.0760     2.5510 c3         1 DSO      -0.073400
     28 C29         -1.1270    -0.1410     1.3530 c3         1 DSO      -0.074400
     29 C30         -1.3410    -0.8880     0.0430 c3         1 DSO      -0.074400
     30 C31         -1.5480     0.0360    -1.1490 c3         1 DSO      -0.076400
     31 C32         -1.7570    -0.7220    -2.4540 c3         1 DSO      -0.080400
     32 C33         -2.1170     0.2110    -3.5980 c3         1 DSO       0.203800
     33 N34         -2.3450    -0.5670    -4.8140 n7         1 DSO      -0.884300
     34 S36         -2.5970     0.2480    -6.2230 sy         1 DSO       1.137600
     35 O37         -3.0610    -0.7370    -7.1910 o          1 DSO      -0.547000
     36 O38         -0.3500    -2.4460     7.5350 o          1 DSO      -0.607100
     37 H1C1         2.4110     0.8420    11.6670 hc         1 DSO       0.040867
     38 H1C2         2.7930    -0.5670    10.6900 hc         1 DSO       0.040867
     39 H2C          0.7070    -0.9480    11.9870 hc         1 DSO       0.050700
     40 H3C1        -1.3140     0.4140    11.4990 hc         1 DSO       0.040867
     41 H3C2        -0.0330     1.4290    12.1400 hc         1 DSO       0.040867
     42 H4C1        -0.7360    -1.6330    10.1040 hc         1 DSO       0.046700
     43 H4C2         0.9460    -2.0220     9.7790 hc         1 DSO       0.046700
     44 H5C          3.0200     1.5140     9.3460 hc         1 DSO       0.050700
     45 H6C1         1.0020     2.8740     8.8400 hc         1 DSO       0.040867
     46 H6C2         1.3390     2.8930    10.5640 hc         1 DSO       0.040867
     47 H7C1         2.3180    -0.5670     8.2040 hc         1 DSO       0.046700
     48 H7C2         1.5970     0.8460     7.4500 hc         1 DSO       0.046700
     49 H8C         -1.0830     2.4840    10.1400 hc         1 DSO       0.050700
     50 H101        -0.8520     1.4410     7.9330 hc         1 DSO       0.046700
     51 H102        -1.8070     0.4140     8.9890 hc         1 DSO       0.046700
     52 H11          3.1120    -2.4930    -7.5910 ha         1 DSO       0.117000
     53 H12          0.9060    -3.4170    -7.0620 ha         1 DSO       0.116000
     54 H13         -0.9800    -1.9920    -6.5590 ha         1 DSO       0.131000
     55 H18         -1.6030     2.8310    -6.5930 ha         1 DSO       0.143000
     56 H19          0.5650     3.7240    -7.3450 ha         1 DSO       0.120000
     57 H20          2.4360     2.2080    -7.7830 ha         1 DSO       0.130000
     58 H221         5.1640     1.4470    -6.9920 h1         1 DSO       0.036367
     59 H222         3.6870     1.3580    -6.0370 h1         1 DSO       0.036367
     60 H223         4.8640     0.0460    -5.9500 h1         1 DSO       0.036367
     61 H231         4.1640    -1.1110    -9.3820 h1         1 DSO       0.036367
     62 H232         5.4800    -0.0650    -8.8490 h1         1 DSO       0.036367
     63 H233         5.0940    -1.5180    -7.9260 h1         1 DSO       0.036367
     64 H25         -0.2690     0.3940     6.2150 hn         1 DSO       0.312500
     65 H261        -1.6580    -1.8360     5.1350 h1         1 DSO       0.050700
     66 H262         0.0590    -2.0650     4.8510 h1         1 DSO       0.050700
     67 H271         0.1660     0.2190     3.8000 hc         1 DSO       0.041700
     68 H272        -1.5670     0.3880     4.0310 hc         1 DSO       0.041700
     69 H281        -1.9320    -1.6700     2.6290 hc         1 DSO       0.043200
     70 H282        -0.2030    -1.7910     2.3810 hc         1 DSO       0.043200
     71 H291        -0.2220     0.4730     1.2810 hc         1 DSO       0.038700
     72 H292        -1.9560     0.5560     1.5140 hc         1 DSO       0.038700
     73 H301        -2.2100    -1.5470     0.1400 hc         1 DSO       0.040200
     74 H302        -0.4840    -1.5440    -0.1440 hc         1 DSO       0.040200
     75 H311        -0.6890     0.7090    -1.2500 hc         1 DSO       0.040200
     76 H312        -2.4150     0.6770    -0.9600 hc         1 DSO       0.040200
     77 H321        -2.5590    -1.4550    -2.3220 hc         1 DSO       0.049700
     78 H322        -0.8560    -1.2840    -2.7120 hc         1 DSO       0.049700
     79 H331        -1.2940     0.9060    -3.7800 h1         1 DSO       0.051200
     80 H332        -2.9960     0.8050    -3.3300 h1         1 DSO       0.051200
     81 H34         -3.0380    -1.3020    -4.7050 hn         1 DSO       0.482000
     82 N21          3.7320     0.1230    -7.7490 nh         1 DSO      -0.781400
     83 O35         -3.4160     1.4370    -6.0220 o          1 DSO      -0.547000
@<TRIPOS>BOND
     1     1     2 1   
     2     1     5 1   
     3     1    37 1   
     4     1    38 1   
     5     2     3 1   
     6     2     4 1   
     7     2    39 1   
     8     3     8 1   
     9     3    40 1   
    10     3    41 1   
    11     4     9 1   
    12     4    42 1   
    13     4    43 1   
    14     5     6 1   
    15     5     7 1   
    16     5    44 1   
    17     6     8 1   
    18     6    45 1   
    19     6    46 1   
    20     7     9 1   
    21     7    47 1   
    22     7    48 1   
    23     8    10 1   
    24     8    49 1   
    25     9    10 1   
    26     9    23 1   
    27    10    50 1   
    28    10    51 1   
    29    11    12 ar  
    30    11    14 ar  
    31    11    52 1   
    32    12    13 ar  
    33    12    53 1   
    34    13    16 ar  
    35    13    54 1   
    36    14    15 ar  
    37    14    82 1   
    38    15    16 ar  
    39    15    20 ar  
    40    16    17 ar  
    41    17    18 ar  
    42    17    34 1   
    43    18    19 ar  
    44    18    55 1   
    45    19    20 ar  
    46    19    56 1   
    47    20    57 1   
    48    21    58 1   
    49    21    59 1   
    50    21    60 1   
    51    21    82 1   
    52    22    61 1   
    53    22    62 1   
    54    22    63 1   
    55    22    82 1   
    56    23    24 1   
    57    23    36 2   
    58    24    25 1   
    59    24    64 1   
    60    25    26 1   
    61    25    65 1   
    62    25    66 1   
    63    26    27 1   
    64    26    67 1   
    65    26    68 1   
    66    27    28 1   
    67    27    69 1   
    68    27    70 1   
    69    28    29 1   
    70    28    71 1   
    71    28    72 1   
    72    29    30 1   
    73    29    73 1   
    74    29    74 1   
    75    30    31 1   
    76    30    75 1   
    77    30    76 1   
    78    31    32 1   
    79    31    77 1   
    80    31    78 1   
    81    32    33 1   
    82    32    79 1   
    83    32    80 1   
    84    33    34 1   
    85    33    81 1   
    86    34    35 2   
    87    34    83 2   
@<TRIPOS>SUBSTRUCTURE
     1 DSO         1 TEMP              0 ****  ****    0 ROOT
