@<TRIPOS>MOLECULE
DSO
   83    87     1     0     0
SMALL
No Charge or Current Charge


@<TRIPOS>ATOM
      1 C1           2.7390     0.5890     9.8950 c6         1 DSO      -0.068733
      2 C2           1.6130    -0.4210    10.2670 c6         1 DSO      -0.060033
      3 C3           0.4150     0.3470    10.8910 c6         1 DSO      -0.068733
      4 C4           1.1360    -1.1650     8.9860 c6         1 DSO      -0.058733
      5 C5           2.1960     1.6380     8.8790 c6         1 DSO      -0.060033
      6 C6           0.9950     2.3950     9.5100 c6         1 DSO      -0.068733
      7 C7           1.7250     0.9140     7.5840 c6         1 DSO      -0.058733
      8 C8          -0.1260     1.3800     9.8640 c6         1 DSO      -0.060033
      9 C9           0.6230    -0.1480     7.9140 c6         1 DSO      -0.123000
     10 C10         -0.5780     0.6370     8.5730 c6         1 DSO      -0.058733
     11 C11          2.4890    -1.8740    -6.3770 ca         1 DSO      -0.167000
     12 C12          1.1930    -2.4000    -6.3710 ca         1 DSO      -0.066000
     13 C13          0.0870    -1.5420    -6.4210 ca         1 DSO      -0.127000
     14 C14          2.6960    -0.4870    -6.4260 ca         1 DSO       0.284000
     15 C15          1.5770     0.3880    -6.4850 ca         1 DSO      -0.067000
     16 C16          0.2530    -0.1370    -6.4870 ca         1 DSO       0.067000
     17 C17         -0.8580     0.7600    -6.5430 ca         1 DSO      -0.263500
     18 C18         -0.6260     2.1510    -6.5900 ca         1 DSO       0.004000
     19 C19          0.6780     2.6570    -6.5980 ca         1 DSO      -0.155000
     20 C20          1.7720     1.7860    -6.5510 ca         1 DSO      -0.025000
     21 C22          4.5790     0.5860    -5.1640 c3         1 DSO       0.171600
     22 C23          5.0030    -0.4600    -7.4160 c3         1 DSO       0.171600
     23 C24          0.1950    -0.9010     6.6140 c          1 DSO       0.603100
     24 N25         -1.1230    -0.7940     6.2160 ns         1 DSO      -0.509900
     25 C26         -1.6840    -1.3940     5.0040 c3         1 DSO       0.105000
     26 C27         -1.3500    -0.5710     3.7430 c3         1 DSO      -0.094400
     27 C28         -1.9540    -1.1730     2.4560 c3         1 DSO      -0.073400
     28 C29         -1.6230    -0.3510     1.1920 c3         1 DSO      -0.074400
     29 C30         -2.2260    -0.9530    -0.0960 c3         1 DSO      -0.074400
     30 C31         -1.8950    -0.1300    -1.3600 c3         1 DSO      -0.076400
     31 C32         -2.4970    -0.7330    -2.6490 c3         1 DSO      -0.080400
     32 C33         -2.1600     0.0880    -3.9080 c3         1 DSO       0.203800
     33 N34         -2.7430    -0.5600    -5.0940 n7         1 DSO      -0.884300
     34 S36         -2.5890     0.2180    -6.5610 sy         1 DSO       1.137600
     35 O37         -2.7570    -0.8300    -7.5710 o          1 DSO      -0.547000
     36 O38          0.9970    -1.5660     5.9700 o          1 DSO      -0.607100
     37 H1C1         3.1070     1.0940    10.7980 hc         1 DSO       0.040867
     38 H1C2         3.5990     0.0560     9.4660 hc         1 DSO       0.040867
     39 H2C          1.9980    -1.1510    10.9930 hc         1 DSO       0.050700
     40 H3C1        -0.3800    -0.3560    11.1770 hc         1 DSO       0.040867
     41 H3C2         0.7270     0.8550    11.8130 hc         1 DSO       0.040867
     42 H4C1         0.3460    -1.8860     9.2380 hc         1 DSO       0.046700
     43 H4C2         1.9680    -1.7550     8.5770 hc         1 DSO       0.046700
     44 H5C          2.9910     2.3540     8.6300 hc         1 DSO       0.050700
     45 H6C1         0.6150     3.1530     8.8110 hc         1 DSO       0.040867
     46 H6C2         1.3170     2.9360    10.4100 hc         1 DSO       0.040867
     47 H7C1         2.5860     0.4260     7.1060 hc         1 DSO       0.046700
     48 H7C2         1.3460     1.6450     6.8570 hc         1 DSO       0.046700
     49 H8C         -0.9820     1.9150    10.2990 hc         1 DSO       0.050700
     50 H101        -0.9930     1.3700     7.8660 hc         1 DSO       0.046700
     51 H102        -1.3960    -0.0530     8.8250 hc         1 DSO       0.046700
     52 H11          3.3390    -2.5470    -6.3250 ha         1 DSO       0.117000
     53 H12          1.0440    -3.4760    -6.3200 ha         1 DSO       0.116000
     54 H13         -0.8930    -2.0020    -6.3980 ha         1 DSO       0.131000
     55 H18         -1.4560     2.8560    -6.6320 ha         1 DSO       0.143000
     56 H19          0.8420     3.7310    -6.6440 ha         1 DSO       0.120000
     57 H20          2.7710     2.2120    -6.5690 ha         1 DSO       0.130000
     58 H221         5.1260     1.5100    -5.3970 h1         1 DSO       0.036367
     59 H222         3.7720     0.8370    -4.4630 h1         1 DSO       0.036367
     60 H223         5.2620    -0.1150    -4.6670 h1         1 DSO       0.036367
     61 H231         4.4890    -0.7230    -8.3510 h1         1 DSO       0.036367
     62 H232         5.7200     0.3400    -7.6400 h1         1 DSO       0.036367
     63 H233         5.5560    -1.3410    -7.0610 h1         1 DSO       0.036367
     64 H25         -1.7300    -0.2330     6.7990 hn         1 DSO       0.312500
     65 H261        -2.7740    -1.4570     5.1210 h1         1 DSO       0.050700
     66 H262        -1.2960    -2.4160     4.8950 h1         1 DSO       0.050700
     67 H271        -0.2610    -0.5020     3.6330 hc         1 DSO       0.041700
     68 H272        -1.7250     0.4520     3.8740 hc         1 DSO       0.041700
     69 H281        -3.0430    -1.2420     2.5670 hc         1 DSO       0.043200
     70 H282        -1.5800    -2.1970     2.3290 hc         1 DSO       0.043200
     71 H291        -0.5330    -0.2830     1.0810 hc         1 DSO       0.038700
     72 H292        -1.9960     0.6730     1.3200 hc         1 DSO       0.038700
     73 H301        -3.3160    -1.0210     0.0140 hc         1 DSO       0.040200
     74 H302        -1.8530    -1.9770    -0.2240 hc         1 DSO       0.040200
     75 H311        -0.8050    -0.0620    -1.4700 hc         1 DSO       0.040200
     76 H312        -2.2690     0.8940    -1.2320 hc         1 DSO       0.040200
     77 H321        -3.5870    -0.8000    -2.5410 hc         1 DSO       0.049700
     78 H322        -2.1210    -1.7550    -2.7780 hc         1 DSO       0.049700
     79 H331        -1.0670     0.1550    -3.9940 h1         1 DSO       0.051200
     80 H332        -2.5500     1.1090    -3.7870 h1         1 DSO       0.051200
     81 H34         -3.7560    -0.5730    -4.9990 hn         1 DSO       0.482000
     82 N21          4.0300    -0.0120    -6.3990 nh         1 DSO      -0.781400
     83 O35         -3.4870     1.3720    -6.4870 o          1 DSO      -0.547000
@<TRIPOS>BOND
     1     1     2 1   
     2     1     5 1   
     3     1    37 1   
     4     1    38 1   
     5     2     3 1   
     6     2     4 1   
     7     2    39 1   
     8     3     8 1   
     9     3    40 1   
    10     3    41 1   
    11     4     9 1   
    12     4    42 1   
    13     4    43 1   
    14     5     6 1   
    15     5     7 1   
    16     5    44 1   
    17     6     8 1   
    18     6    45 1   
    19     6    46 1   
    20     7     9 1   
    21     7    47 1   
    22     7    48 1   
    23     8    10 1   
    24     8    49 1   
    25     9    10 1   
    26     9    23 1   
    27    10    50 1   
    28    10    51 1   
    29    11    12 ar  
    30    11    14 ar  
    31    11    52 1   
    32    12    13 ar  
    33    12    53 1   
    34    13    16 ar  
    35    13    54 1   
    36    14    15 ar  
    37    14    82 1   
    38    15    16 ar  
    39    15    20 ar  
    40    16    17 ar  
    41    17    18 ar  
    42    17    34 1   
    43    18    19 ar  
    44    18    55 1   
    45    19    20 ar  
    46    19    56 1   
    47    20    57 1   
    48    21    58 1   
    49    21    59 1   
    50    21    60 1   
    51    21    82 1   
    52    22    61 1   
    53    22    62 1   
    54    22    63 1   
    55    22    82 1   
    56    23    24 1   
    57    23    36 2   
    58    24    25 1   
    59    24    64 1   
    60    25    26 1   
    61    25    65 1   
    62    25    66 1   
    63    26    27 1   
    64    26    67 1   
    65    26    68 1   
    66    27    28 1   
    67    27    69 1   
    68    27    70 1   
    69    28    29 1   
    70    28    71 1   
    71    28    72 1   
    72    29    30 1   
    73    29    73 1   
    74    29    74 1   
    75    30    31 1   
    76    30    75 1   
    77    30    76 1   
    78    31    32 1   
    79    31    77 1   
    80    31    78 1   
    81    32    33 1   
    82    32    79 1   
    83    32    80 1   
    84    33    34 1   
    85    33    81 1   
    86    34    35 2   
    87    34    83 2   
@<TRIPOS>SUBSTRUCTURE
     1 DSO         1 TEMP              0 ****  ****    0 ROOT
