@<TRIPOS>MOLECULE
DSP
   14    13     1     0     0
SMALL
bcc


@<TRIPOS>ATOM
      1 N            1.6700    -0.2500    -0.2310 n8         1 DSP      -0.852800
      2 CA           0.3450     0.2850    -0.5110 c3         1 DSP       0.035500
      3 C           -0.1880     0.0280    -1.9400 c          1 DSP       0.893600
      4 O            0.4230    -0.7960    -2.6520 o          1 DSP      -0.878300
      5 CB          -0.6420    -0.2670     0.5160 c3         1 DSP      -0.170400
      6 CG          -0.2830     0.1060     1.9620 c          1 DSP       0.935600
      7 OD1         -0.0810     1.3170     2.1940 o          1 DSP      -0.883800
      8 OD2         -0.2510    -0.8150     2.8050 o          1 DSP      -0.883800
      9 OXT         -1.2120     0.6660    -2.2660 o          1 DSP      -0.878300
     10 H            2.3280     0.1470    -0.8920 hn         1 DSP       0.297300
     11 HN2          1.6620    -1.2380    -0.4560 hn         1 DSP       0.297300
     12 HA           0.3900     1.3690    -0.3680 h1         1 DSP       0.054700
     13 HB1         -1.6380     0.1250     0.2890 hc         1 DSP       0.016200
     14 HB2         -0.7030    -1.3560     0.4100 hc         1 DSP       0.016200
@<TRIPOS>BOND
     1     1     2 1   
     2     1    10 1   
     3     1    11 1   
     4     2     3 1   
     5     2     5 1   
     6     2    12 1   
     7     3     4 1   
     8     3     9 1   
     9     5     6 1   
    10     5    13 1   
    11     5    14 1   
    12     6     7 1   
    13     6     8 1   
@<TRIPOS>SUBSTRUCTURE
     1 DSP         1 TEMP              0 ****  ****    0 ROOT
