@<TRIPOS>MOLECULE
DSP
   14    13     1     0     0
SMALL
No Charge or Current Charge


@<TRIPOS>ATOM
      1 N            1.7540    -0.4460    -0.3490 n8         1 DSP      -0.963200
      2 CA           0.3920     0.1900    -0.4480 c3         1 DSP       0.035500
      3 C           -0.2470     0.2090    -1.9020 c          1 DSP       0.683000
      4 O           -0.3480    -0.8470    -2.5140 o          1 DSP      -0.773000
      5 CB          -0.5890    -0.4360     0.5890 c3         1 DSP      -0.170400
      6 CG          -0.4480     0.2390     1.9690 c          1 DSP       0.725000
      7 OD1         -1.0690     1.2730     2.1710 o          1 DSP      -0.778500
      8 OD2          0.2680    -0.2820     2.8130 o          1 DSP      -0.778500
      9 OXT         -0.5120     1.2910    -2.4080 o          1 DSP      -0.773000
     10 H            2.3840     0.0150    -1.0150 hn         1 DSP       0.352500
     11 HN2          1.6840    -1.4040    -0.7110 hn         1 DSP       0.352500
     12 HA           0.5150     1.2480    -0.1760 h1         1 DSP       0.054700
     13 HB1         -1.5900    -0.2180     0.1960 hc         1 DSP       0.016200
     14 HB2         -0.3740    -1.5110     0.6450 hc         1 DSP       0.016200
@<TRIPOS>BOND
     1     1     2 1   
     2     1    10 1   
     3     1    11 1   
     4     2     3 1   
     5     2     5 1   
     6     2    12 1   
     7     3     4 1   
     8     3     9 1   
     9     5     6 1   
    10     5    13 1   
    11     5    14 1   
    12     6     7 1   
    13     6     8 1   
@<TRIPOS>SUBSTRUCTURE
     1 DSP         1 TEMP              0 ****  ****    0 ROOT
