@<TRIPOS>MOLECULE
DSQ
   45    46     1     0     0
SMALL
No Charge or Current Charge


@<TRIPOS>ATOM
      1 C8          -2.5330    -1.8530     0.1410 c6         1 DSQ       0.397300
      2 C9          -1.2980    -1.1660    -0.4800 c6         1 DSQ      -0.109400
      3 C10         -1.1580     0.3030     0.0260 c6         1 DSQ      -0.055700
      4 C11         -2.5110     1.0630    -0.1800 c6         1 DSQ       0.139300
      5 C12         -3.6990     0.2310     0.4090 c6         1 DSQ       0.151300
      6 C13         -5.0900     0.8940     0.1300 c3         1 DSQ       0.169600
      7 O8          -2.7520    -3.1120    -0.4480 oh         1 DSQ      -0.642000
      8 O12         -3.7050    -1.1040    -0.1610 os         1 DSQ      -0.480000
      9 O13         -6.2040     0.1170     0.6170 oh         1 DSQ      -0.706000
     10 O11         -2.4580     2.3650     0.4320 oh         1 DSQ      -0.713000
     11 C7           0.0490     1.0430    -0.6480 c3         1 DSQ      -0.057400
     12 C1           1.4500     0.3790    -0.4720 c6         1 DSQ       0.176300
     13 C2           2.6050     1.1670    -1.1800 c6         1 DSQ       0.140300
     14 O2           2.6890     2.5310    -0.6980 oh         1 DSQ      -0.704000
     15 C3           3.9580     0.4240    -0.9220 c6         1 DSQ       0.149300
     16 O3           4.0320    -0.8210    -1.6310 oh         1 DSQ      -0.663000
     17 C4           4.1740     0.1580     0.6060 c6         1 DSQ       0.105300
     18 O4           5.3510    -0.6630     0.7970 oh         1 DSQ      -0.731000
     19 C5           2.9060    -0.4590     1.3090 c6         1 DSQ       0.145300
     20 O5           1.7110     0.2790     0.9540 os         1 DSQ      -0.439000
     21 C6           2.6480    -1.9790     1.0670 c3         1 DSQ      -0.120100
     22 H1          -2.4190    -1.9550     1.2310 h2         1 DSQ       0.017700
     23 H2          -0.4070    -1.7520    -0.2190 hc         1 DSQ       0.064200
     24 H3          -1.3790    -1.1820    -1.5760 hc         1 DSQ       0.064200
     25 H4          -0.9470     0.2730     1.1050 hc         1 DSQ       0.076700
     26 H5          -2.6850     1.1710    -1.2610 h1         1 DSQ       0.039700
     27 H6          -3.5750     0.1470     1.4990 h1         1 DSQ       0.057700
     28 H7          -5.1010     1.8870     0.5990 h1         1 DSQ       0.023200
     29 H8          -5.1850     1.0450    -0.9540 h1         1 DSQ       0.023200
     30 H9          -3.6980    -3.0680    -0.6990 ho         1 DSQ       0.459000
     31 H10         -7.0240     0.5840     0.3320 ho         1 DSQ       0.502000
     32 H11         -1.8930     2.9330    -0.1410 ho         1 DSQ       0.502000
     33 H12         -0.1520     1.1500    -1.7210 hc         1 DSQ       0.061200
     34 H13          0.1060     2.0660    -0.2570 hc         1 DSQ       0.061200
     35 H14          1.3980    -0.6260    -0.9100 h1         1 DSQ       0.054700
     36 H15          2.4080     1.1680    -2.2630 h1         1 DSQ       0.054700
     37 H16          3.2610     3.0280    -1.3280 ho         1 DSQ       0.500000
     38 H17          4.7750     1.0730    -1.2680 h1         1 DSQ       0.039700
     39 H18          4.6740    -1.3430    -1.0930 ho         1 DSQ       0.467000
     40 H19          4.3410     1.1410     1.0730 h1         1 DSQ       0.057700
     41 H20          5.6220    -0.5750     1.7420 ho         1 DSQ       0.514000
     42 H21          3.0420    -0.3380     2.3940 h1         1 DSQ       0.063700
     43 H22          3.4560    -2.5840     1.4960 hc         1 DSQ       0.046700
     44 H23          1.7180    -2.2950     1.5540 hc         1 DSQ       0.046700
     45 H24          2.5720    -2.2430     0.0080 hc         1 DSQ       0.046700
@<TRIPOS>BOND
     1     1     2 1   
     2     1     7 1   
     3     1     8 1   
     4     1    22 1   
     5     2     3 1   
     6     2    23 1   
     7     2    24 1   
     8     3     4 1   
     9     3    11 1   
    10     3    25 1   
    11     4     5 1   
    12     4    10 1   
    13     4    26 1   
    14     5     6 1   
    15     5     8 1   
    16     5    27 1   
    17     6     9 1   
    18     6    28 1   
    19     6    29 1   
    20     7    30 1   
    21     9    31 1   
    22    10    32 1   
    23    11    12 1   
    24    11    33 1   
    25    11    34 1   
    26    12    13 1   
    27    12    20 1   
    28    12    35 1   
    29    13    14 1   
    30    13    15 1   
    31    13    36 1   
    32    14    37 1   
    33    15    16 1   
    34    15    17 1   
    35    15    38 1   
    36    16    39 1   
    37    17    18 1   
    38    17    19 1   
    39    17    40 1   
    40    18    41 1   
    41    19    20 1   
    42    19    21 1   
    43    19    42 1   
    44    21    43 1   
    45    21    44 1   
    46    21    45 1   
@<TRIPOS>SUBSTRUCTURE
     1 DSQ         1 TEMP              0 ****  ****    0 ROOT
