@<TRIPOS>MOLECULE
DSQ
   45    46     1     0     0
SMALL
abcg2


@<TRIPOS>ATOM
      1 C8          -2.4570    -1.7620     0.0670 c6         1 DSQ       0.397300
      2 C9          -1.2120    -1.0890    -0.4710 c6         1 DSQ      -0.109400
      3 C10         -1.1010     0.3490     0.0330 c6         1 DSQ      -0.055700
      4 C11         -2.4140     1.0930    -0.2110 c6         1 DSQ       0.139300
      5 C12         -3.6030     0.2750     0.3150 c6         1 DSQ       0.151300
      6 C13         -4.9310     0.9250    -0.0100 c3         1 DSQ       0.169600
      7 O8          -2.5810    -3.0140    -0.5050 oh         1 DSQ      -0.642000
      8 O12         -3.6030    -1.0110    -0.2650 os         1 DSQ      -0.480000
      9 O13         -5.9670     0.1870     0.5920 oh         1 DSQ      -0.706000
     10 O11         -2.3410     2.3430     0.4410 oh         1 DSQ      -0.713000
     11 C7           0.0710     1.0960    -0.6080 c3         1 DSQ      -0.057400
     12 C1           1.4120     0.3990    -0.4410 c6         1 DSQ       0.176300
     13 C2           2.5600     1.1230    -1.1320 c6         1 DSQ       0.140300
     14 O2           2.6290     2.4410    -0.6410 oh         1 DSQ      -0.704000
     15 C3           3.8750     0.3780    -0.8740 c6         1 DSQ       0.149300
     16 O3           3.8500    -0.8090    -1.6320 oh         1 DSQ      -0.663000
     17 C4           4.0450     0.1260     0.6210 c6         1 DSQ       0.105300
     18 O4           5.2050    -0.6560     0.7860 oh         1 DSQ      -0.731000
     19 C5           2.8040    -0.5090     1.2730 c6         1 DSQ       0.145300
     20 O5           1.6640     0.2650     0.9440 os         1 DSQ      -0.439000
     21 C6           2.5980    -1.9970     1.0150 c3         1 DSQ      -0.120100
     22 H1          -2.3890    -1.8280     1.1680 h2         1 DSQ       0.017700
     23 H2          -0.3380    -1.6630    -0.1570 hc         1 DSQ       0.064200
     24 H3          -1.2410    -1.1070    -1.5670 hc         1 DSQ       0.064200
     25 H4          -0.9470     0.3150     1.1180 hc         1 DSQ       0.076700
     26 H5          -2.5440     1.2240    -1.2970 h1         1 DSQ       0.039700
     27 H6          -3.5010     0.1980     1.4110 h1         1 DSQ       0.057700
     28 H7          -4.9140     1.9580     0.3570 h1         1 DSQ       0.023200
     29 H8          -5.0450     0.9740    -1.1020 h1         1 DSQ       0.023200
     30 H9          -3.2420    -3.5210    -0.0220 ho         1 DSQ       0.459000
     31 H10         -6.7960     0.6390     0.4140 ho         1 DSQ       0.502000
     32 H11         -2.9060     2.9710    -0.0160 ho         1 DSQ       0.502000
     33 H12         -0.1160     1.1970    -1.6830 hc         1 DSQ       0.061200
     34 H13          0.1290     2.1070    -0.2030 hc         1 DSQ       0.061200
     35 H14          1.3450    -0.5860    -0.9210 h1         1 DSQ       0.054700
     36 H15          2.3660     1.1120    -2.2150 h1         1 DSQ       0.054700
     37 H16          3.3270     2.9050    -1.1140 ho         1 DSQ       0.500000
     38 H17          4.7100     1.0180    -1.2050 h1         1 DSQ       0.039700
     39 H18          4.5640    -1.3760    -1.3240 ho         1 DSQ       0.467000
     40 H19          4.1750     1.1130     1.0870 h1         1 DSQ       0.057700
     41 H20          5.3850    -0.7590     1.7260 ho         1 DSQ       0.514000
     42 H21          2.9160    -0.3880     2.3560 h1         1 DSQ       0.063700
     43 H22          3.4510    -2.5700     1.3760 hc         1 DSQ       0.046700
     44 H23          1.7210    -2.3420     1.5650 hc         1 DSQ       0.046700
     45 H24          2.4580    -2.2450    -0.0360 hc         1 DSQ       0.046700
@<TRIPOS>BOND
     1     1     2 1   
     2     1     7 1   
     3     1     8 1   
     4     1    22 1   
     5     2     3 1   
     6     2    23 1   
     7     2    24 1   
     8     3     4 1   
     9     3    11 1   
    10     3    25 1   
    11     4     5 1   
    12     4    10 1   
    13     4    26 1   
    14     5     6 1   
    15     5     8 1   
    16     5    27 1   
    17     6     9 1   
    18     6    28 1   
    19     6    29 1   
    20     7    30 1   
    21     9    31 1   
    22    10    32 1   
    23    11    12 1   
    24    11    33 1   
    25    11    34 1   
    26    12    13 1   
    27    12    20 1   
    28    12    35 1   
    29    13    14 1   
    30    13    15 1   
    31    13    36 1   
    32    14    37 1   
    33    15    16 1   
    34    15    17 1   
    35    15    38 1   
    36    16    39 1   
    37    17    18 1   
    38    17    19 1   
    39    17    40 1   
    40    18    41 1   
    41    19    20 1   
    42    19    21 1   
    43    19    42 1   
    44    21    43 1   
    45    21    44 1   
    46    21    45 1   
@<TRIPOS>SUBSTRUCTURE
     1 DSQ         1 TEMP              0 ****  ****    0 ROOT
