@<TRIPOS>MOLECULE
DSR
   22    22     1     0     0
SMALL
bcc


@<TRIPOS>ATOM
      1 C1          -2.3350     5.5600    -1.6010 c6         1 DSR       0.353900
      2 C2          -1.5710     4.3410    -1.1180 c6         1 DSR      -0.104400
      3 C3          -2.4650     3.1080    -1.0980 c6         1 DSR       0.166100
      4 C4          -3.7610     3.4210    -0.3410 c6         1 DSR      -0.016600
      5 C5          -4.4150     4.7090    -0.8510 c6         1 DSR       0.174100
      6 C6          -5.6160     5.1330    -0.0310 c3         1 DSR      -0.095100
      7 O1          -1.5210     6.6720    -1.4880 oh         1 DSR      -0.580800
      8 O3          -2.7350     2.7340    -2.4340 oh         1 DSR      -0.598800
      9 O5          -3.4720     5.7640    -0.7900 os         1 DSR      -0.453600
     10 S4          -4.8760     1.9840    -0.5270 sh         1 DSR      -0.410900
     11 H1          -2.6660     5.4120    -2.6420 h2         1 DSR       0.034700
     12 H2          -0.7040     4.1530    -1.7540 hc         1 DSR       0.072200
     13 H22         -1.2040     4.5310    -0.1050 hc         1 DSR       0.072200
     14 H3          -1.9420     2.3020    -0.5710 h1         1 DSR       0.048700
     15 H4          -3.5260     3.5280     0.7220 h1         1 DSR       0.079700
     16 H5          -4.7300     4.5470    -1.8930 h1         1 DSR       0.059700
     17 H61         -6.0220     6.0740    -0.4020 hc         1 DSR       0.047700
     18 H62         -6.4060     4.3860    -0.0920 hc         1 DSR       0.047700
     19 H63         -5.3490     5.2620     1.0190 hc         1 DSR       0.047700
     20 HO1         -1.9130     7.4030    -1.9780 ho         1 DSR       0.418000
     21 HO3         -2.9140     1.7890    -2.4660 ho         1 DSR       0.418000
     22 H4S         -5.4810     2.0720     0.6610 hs         1 DSR       0.217800
@<TRIPOS>BOND
     1     1     2 1   
     2     1     7 1   
     3     1     9 1   
     4     1    11 1   
     5     2     3 1   
     6     2    12 1   
     7     2    13 1   
     8     3     4 1   
     9     3     8 1   
    10     3    14 1   
    11     4     5 1   
    12     4    10 1   
    13     4    15 1   
    14     5     6 1   
    15     5     9 1   
    16     5    16 1   
    17     6    17 1   
    18     6    18 1   
    19     6    19 1   
    20     7    20 1   
    21     8    21 1   
    22    10    22 1   
@<TRIPOS>SUBSTRUCTURE
     1 DSR         1 TEMP              0 ****  ****    0 ROOT
