@<TRIPOS>MOLECULE
DSR
   22    22     1     0     0
SMALL
No Charge or Current Charge


@<TRIPOS>ATOM
      1 C1          -2.3140     5.5360    -1.7500 c6         1 DSR       0.400300
      2 C2          -1.4840     4.3660    -1.1870 c6         1 DSR      -0.104400
      3 C3          -2.3500     3.0910    -1.0750 c6         1 DSR       0.189300
      4 C4          -3.6770     3.3830    -0.3140 c6         1 DSR       0.031300
      5 C5          -4.3790     4.6480    -0.9000 c6         1 DSR       0.197300
      6 C6          -5.5980     5.1100    -0.0630 c3         1 DSR      -0.095100
      7 O1          -1.5890     6.7400    -1.6770 oh         1 DSR      -0.643000
      8 O3          -2.6310     2.5650    -2.3780 oh         1 DSR      -0.661000
      9 O5          -3.4560     5.7580    -0.9250 os         1 DSR      -0.500000
     10 S4          -4.8020     1.8720    -0.4140 sh         1 DSR      -0.458800
     11 H1          -2.6250     5.3370    -2.7870 h2         1 DSR       0.034700
     12 H2          -0.6120     4.1790    -1.8270 hc         1 DSR       0.072200
     13 H22         -1.0960     4.6330    -0.1950 hc         1 DSR       0.072200
     14 H3          -1.7860     2.3400    -0.5010 h1         1 DSR       0.048700
     15 H4          -3.4350     3.5780     0.7410 h1         1 DSR       0.079700
     16 H5          -4.7170     4.4450    -1.9280 h1         1 DSR       0.059700
     17 H61         -6.0180     6.0390    -0.4660 hc         1 DSR       0.047700
     18 H62         -6.3970     4.3600    -0.0730 hc         1 DSR       0.047700
     19 H63         -5.3180     5.2920     0.9810 hc         1 DSR       0.047700
     20 HO1         -2.2060     7.3310    -1.1970 ho         1 DSR       0.457000
     21 HO3         -3.3620     1.9200    -2.2400 ho         1 DSR       0.457000
     22 H4S         -5.7750     2.3610     0.3960 hs         1 DSR       0.217800
@<TRIPOS>BOND
     1     1     2 1   
     2     1     7 1   
     3     1     9 1   
     4     1    11 1   
     5     2     3 1   
     6     2    12 1   
     7     2    13 1   
     8     3     4 1   
     9     3     8 1   
    10     3    14 1   
    11     4     5 1   
    12     4    10 1   
    13     4    15 1   
    14     5     6 1   
    15     5     9 1   
    16     5    16 1   
    17     6    17 1   
    18     6    18 1   
    19     6    19 1   
    20     7    20 1   
    21     8    21 1   
    22    10    22 1   
@<TRIPOS>SUBSTRUCTURE
     1 DSR         1 TEMP              0 ****  ****    0 ROOT
