@<TRIPOS>MOLECULE
DSS
   14    13     1     0     0
SMALL
abcg2


@<TRIPOS>ATOM
      1 S            1.1190    -0.0340     0.4360 s4         1 DSS       0.178400
      2 O            1.3630    -1.4740     0.0600 o          1 DSS      -0.484000
      3 C1           2.5050     0.9210    -0.2130 c3         1 DSS      -0.071800
      4 C2          -0.1380     0.5870    -0.7340 c3         1 DSS       0.070900
      5 S3          -1.7000    -0.2550    -0.4670 ss         1 DSS      -0.337000
      6 C4          -2.2740     0.6080     1.0140 c3         1 DSS       0.018900
      7 H11          2.6250     0.7250    -1.2780 h1         1 DSS       0.078367
      8 H12          2.3330     1.9820    -0.0360 h1         1 DSS       0.078367
      9 H13          3.3970     0.6080     0.3260 h1         1 DSS       0.078367
     10 H21         -0.2370     1.6670    -0.6140 h2         1 DSS       0.102200
     11 H22          0.2020     0.3610    -1.7460 h2         1 DSS       0.102200
     12 H41         -3.2190     0.1510     1.3040 h1         1 DSS       0.061700
     13 H42         -1.5710     0.4980     1.8380 h1         1 DSS       0.061700
     14 H43         -2.4410     1.6640     0.8100 h1         1 DSS       0.061700
@<TRIPOS>BOND
     1     1     2 2   
     2     1     3 1   
     3     1     4 1   
     4     3     7 1   
     5     3     8 1   
     6     3     9 1   
     7     4     5 1   
     8     4    10 1   
     9     4    11 1   
    10     5     6 1   
    11     6    12 1   
    12     6    13 1   
    13     6    14 1   
@<TRIPOS>SUBSTRUCTURE
     1 DSS         1 TEMP              0 ****  ****    0 ROOT
