@<TRIPOS>MOLECULE
DSS
   14    13     1     0     0
SMALL
No Charge or Current Charge


@<TRIPOS>ATOM
      1 S            1.0920     0.0280     0.4690 s4         1 DSS       0.178400
      2 O            1.3640    -1.4420     0.2380 o          1 DSS      -0.484000
      3 C1           2.5300     0.9560    -0.2210 c3         1 DSS      -0.071800
      4 C2          -0.1440     0.5740    -0.8010 c3         1 DSS       0.070900
      5 S3          -1.8410    -0.1480    -0.5930 ss         1 DSS      -0.337000
      6 C4          -2.3070     0.5650     1.0480 c3         1 DSS       0.018900
      7 H11          2.6390     0.7130    -1.2850 h1         1 DSS       0.078367
      8 H12          2.3550     2.0310    -0.0950 h1         1 DSS       0.078367
      9 H13          3.4340     0.6590     0.3240 h1         1 DSS       0.078367
     10 H21         -0.2030     1.6660    -0.7420 h2         1 DSS       0.102200
     11 H22          0.2560     0.2830    -1.7780 h2         1 DSS       0.102200
     12 H41         -3.3300     0.2620     1.3040 h1         1 DSS       0.061700
     13 H42         -1.6230     0.2010     1.8250 h1         1 DSS       0.061700
     14 H43         -2.2580     1.6610     1.0070 h1         1 DSS       0.061700
@<TRIPOS>BOND
     1     1     2 2   
     2     1     3 1   
     3     1     4 1   
     4     3     7 1   
     5     3     8 1   
     6     3     9 1   
     7     4     5 1   
     8     4    10 1   
     9     4    11 1   
    10     5     6 1   
    11     6    12 1   
    12     6    13 1   
    13     6    14 1   
@<TRIPOS>SUBSTRUCTURE
     1 DSS         1 TEMP              0 ****  ****    0 ROOT
