@<TRIPOS>MOLECULE
DSU
   74    75     1     0     0
SMALL
abcg2


@<TRIPOS>ATOM
      1 O1N          2.3960    -0.9530    -1.9840 o          1 DSU      -0.494000
      2 C1N          2.4760    -0.5510    -0.8490 c          1 DSU       0.595100
      3 C2N          3.6130     0.2710    -0.3080 c3         1 DSU      -0.136400
      4 C3N          4.9650    -0.1410    -0.8800 c3         1 DSU      -0.068400
      5 C4N          6.1070     0.6510    -0.2570 c3         1 DSU      -0.076400
      6 C5N          7.4780     0.2170    -0.7620 c3         1 DSU      -0.074400
      7 C6N          8.6230     0.9720    -0.0990 c3         1 DSU      -0.074400
      8 C7N          9.9990     0.5260    -0.5780 c3         1 DSU      -0.074400
      9 C8N         11.1410     1.2650     0.1070 c3         1 DSU      -0.075400
     10 C9N         12.5200     0.8180    -0.3610 c3         1 DSU      -0.075400
     11 C10         13.6520     1.5590     0.3370 c3         1 DSU      -0.088100
     12 O6           1.5490    -0.7880     0.0730 os         1 DSU      -0.434100
     13 C6           0.4180    -1.5800    -0.2950 c3         1 DSU       0.157600
     14 C5          -0.3520    -1.8930     0.9630 c5         1 DSU       0.130300
     15 O2          -0.9030    -0.7090     1.5410 os         1 DSU      -0.394000
     16 C4          -1.5330    -2.8410     0.7100 c5         1 DSU       0.103300
     17 O4          -1.2580    -4.1860     0.9930 oh         1 DSU      -0.715000
     18 C3          -2.5660    -2.2860     1.6770 c5         1 DSU       0.113300
     19 O3          -3.8950    -2.6230     1.3980 oh         1 DSU      -0.719000
     20 C2          -2.2920    -0.7770     1.5800 c5         1 DSU       0.415000
     21 C1          -2.7960     0.0100     2.7790 c3         1 DSU       0.159600
     22 O1          -2.3450     1.3330     2.6900 oh         1 DSU      -0.678000
     23 O11         -2.7210    -0.2570     0.3350 os         1 DSU      -0.457000
     24 C16         -4.0560     0.0330     0.1070 c6         1 DSU       0.397300
     25 O5          -4.1990     1.4300     0.1350 os         1 DSU      -0.491000
     26 C12         -5.5360     1.8470    -0.0060 c6         1 DSU       0.368300
     27 O7          -5.5750     3.2190     0.1150 os         1 DSU      -0.452000
     28 C11         -5.2780     3.7040     1.4110 c3         1 DSU       0.152900
     29 C13         -6.0730     1.4560    -1.3810 c6         1 DSU       0.124300
     30 O9          -5.3810     2.0990    -2.4210 oh         1 DSU      -0.705000
     31 C14         -5.8960    -0.0540    -1.5790 c6         1 DSU       0.137300
     32 O10         -6.7310    -0.7720    -0.7010 oh         1 DSU      -0.666000
     33 C15         -4.4540    -0.4730    -1.2840 c6         1 DSU       0.156300
     34 O8          -4.2710    -1.8540    -1.4430 oh         1 DSU      -0.711000
     35 H2N1         3.6260     0.2090     0.7820 hc         1 DSU       0.073700
     36 H2N2         3.4090     1.3180    -0.5540 hc         1 DSU       0.073700
     37 H3N1         4.9700    -0.0050    -1.9640 hc         1 DSU       0.052200
     38 H3N2         5.1270    -1.2080    -0.7000 hc         1 DSU       0.052200
     39 H4N1         6.0730     0.5360     0.8320 hc         1 DSU       0.038700
     40 H4N2         5.9660     1.7190    -0.4540 hc         1 DSU       0.038700
     41 H5N1         7.5290     0.3560    -1.8480 hc         1 DSU       0.039200
     42 H5N2         7.6020    -0.8570    -0.5880 hc         1 DSU       0.039200
     43 H6N1         8.5590     0.8400     0.9870 hc         1 DSU       0.037200
     44 H6N2         8.5060     2.0460    -0.2800 hc         1 DSU       0.037200
     45 H7N1        10.0710     0.6690    -1.6620 hc         1 DSU       0.037200
     46 H7N2        10.1090    -0.5510    -0.4080 hc         1 DSU       0.037200
     47 H8N1        11.0640     1.1240     1.1910 hc         1 DSU       0.036700
     48 H8N2        11.0320     2.3420    -0.0650 hc         1 DSU       0.036700
     49 H9N1        12.5990     0.9630    -1.4440 hc         1 DSU       0.036700
     50 H9N2        12.6260    -0.2580    -0.1930 hc         1 DSU       0.036700
     51 H101        14.6280     1.2240    -0.0130 hc         1 DSU       0.031367
     52 H102        13.5880     2.6340     0.1580 hc         1 DSU       0.031367
     53 H103        13.6160     1.4040     1.4170 hc         1 DSU       0.031367
     54 H6'1        -0.2080    -1.0430    -1.0120 h1         1 DSU       0.061200
     55 H6'2         0.7450    -2.5150    -0.7580 h1         1 DSU       0.061200
     56 H5           0.3200    -2.3520     1.6970 h1         1 DSU       0.082700
     57 H4          -1.9080    -2.7240    -0.3140 h1         1 DSU       0.080700
     58 H7          -0.8890    -4.6000     0.2080 ho         1 DSU       0.518000
     59 H3          -2.2930    -2.6090     2.6930 h1         1 DSU       0.061700
     60 H6          -4.0260    -3.5540     1.6070 ho         1 DSU       0.527000
     61 H1'1        -3.8900    -0.0570     2.8260 h1         1 DSU       0.030700
     62 H1'2        -2.4200    -0.4910     3.6810 h1         1 DSU       0.030700
     63 H1          -2.8700     1.8710     3.2870 ho         1 DSU       0.499000
     64 H14         -4.7080    -0.4140     0.8700 h2         1 DSU       0.043700
     65 H11         -6.1570     1.3660     0.7720 h2         1 DSU       0.028700
     66 H61         -4.2350     3.5340     1.6870 h1         1 DSU       0.037367
     67 H62         -5.4690     4.7750     1.4080 h1         1 DSU       0.037367
     68 H63         -5.9170     3.2370     2.1670 h1         1 DSU       0.037367
     69 H12         -7.1480     1.6930    -1.4110 h1         1 DSU       0.038700
     70 HO4         -5.4410     3.0510    -2.2890 ho         1 DSU       0.527000
     71 H13         -6.1260    -0.2960    -2.6260 h1         1 DSU       0.070700
     72 HO3         -7.6480    -0.6260    -0.9570 ho         1 DSU       0.447000
     73 H2          -3.8050     0.0230    -2.0130 h1         1 DSU       0.111700
     74 HO2         -4.4820    -2.3000    -0.6120 ho         1 DSU       0.521000
@<TRIPOS>BOND
     1     1     2 2   
     2     2     3 1   
     3     2    12 1   
     4     3     4 1   
     5     3    35 1   
     6     3    36 1   
     7     4     5 1   
     8     4    37 1   
     9     4    38 1   
    10     5     6 1   
    11     5    39 1   
    12     5    40 1   
    13     6     7 1   
    14     6    41 1   
    15     6    42 1   
    16     7     8 1   
    17     7    43 1   
    18     7    44 1   
    19     8     9 1   
    20     8    45 1   
    21     8    46 1   
    22     9    10 1   
    23     9    47 1   
    24     9    48 1   
    25    10    11 1   
    26    10    49 1   
    27    10    50 1   
    28    11    51 1   
    29    11    52 1   
    30    11    53 1   
    31    12    13 1   
    32    13    14 1   
    33    13    54 1   
    34    13    55 1   
    35    14    15 1   
    36    14    16 1   
    37    14    56 1   
    38    15    20 1   
    39    16    17 1   
    40    16    18 1   
    41    16    57 1   
    42    17    58 1   
    43    18    19 1   
    44    18    20 1   
    45    18    59 1   
    46    19    60 1   
    47    20    21 1   
    48    20    23 1   
    49    21    22 1   
    50    21    61 1   
    51    21    62 1   
    52    22    63 1   
    53    23    24 1   
    54    24    25 1   
    55    24    33 1   
    56    24    64 1   
    57    25    26 1   
    58    26    27 1   
    59    26    29 1   
    60    26    65 1   
    61    27    28 1   
    62    28    66 1   
    63    28    67 1   
    64    28    68 1   
    65    29    30 1   
    66    29    31 1   
    67    29    69 1   
    68    30    70 1   
    69    31    32 1   
    70    31    33 1   
    71    31    71 1   
    72    32    72 1   
    73    33    34 1   
    74    33    73 1   
    75    34    74 1   
@<TRIPOS>SUBSTRUCTURE
     1 DSU         1 TEMP              0 ****  ****    0 ROOT
