@<TRIPOS>MOLECULE
DSU
   74    75     1     0     0
SMALL
No Charge or Current Charge


@<TRIPOS>ATOM
      1 O1N          1.8780     0.4830    -2.4810 o          1 DSU      -0.494000
      2 C1N          2.2320     0.5080    -1.3100 c          1 DSU       0.595100
      3 C2N          3.4620     1.2690    -0.8110 c3         1 DSU      -0.136400
      4 C3N          4.7490     0.4260    -0.9730 c3         1 DSU      -0.068400
      5 C4N          6.0160     1.1550    -0.4730 c3         1 DSU      -0.076400
      6 C5N          7.3010     0.3140    -0.6350 c3         1 DSU      -0.074400
      7 C6N          8.5670     1.0420    -0.1340 c3         1 DSU      -0.074400
      8 C7N          9.8520     0.2010    -0.2970 c3         1 DSU      -0.074400
      9 C8N         11.1190     0.9300     0.2040 c3         1 DSU      -0.075400
     10 C9N         12.4040     0.0890     0.0410 c3         1 DSU      -0.075400
     11 C10         13.6680     0.8160     0.5400 c3         1 DSU      -0.088100
     12 O6           1.6160    -0.1810    -0.2990 os         1 DSU      -0.434100
     13 C6           0.4490    -0.9610    -0.6260 c3         1 DSU       0.157600
     14 C5          -0.0800    -1.6200     0.6740 c5         1 DSU       0.130300
     15 O2          -0.6400    -0.6120     1.5620 os         1 DSU      -0.394000
     16 C4          -1.2270    -2.6670     0.4280 c5         1 DSU       0.103300
     17 O4          -0.8010    -4.0380     0.5310 oh         1 DSU      -0.715000
     18 C3          -2.2370    -2.2960     1.5570 c5         1 DSU       0.113300
     19 O3          -3.5620    -2.8220     1.3220 oh         1 DSU      -0.719000
     20 C2          -2.0790    -0.7310     1.5760 c5         1 DSU       0.415000
     21 C1          -2.6610    -0.0250     2.8610 c3         1 DSU       0.159600
     22 O1          -2.3830     1.3940     2.9210 oh         1 DSU      -0.678000
     23 O11         -2.5870    -0.1800     0.3210 os         1 DSU      -0.457000
     24 C16         -4.0130    -0.0270     0.1640 c6         1 DSU       0.397300
     25 O5          -4.3110     1.3790     0.1470 os         1 DSU      -0.491000
     26 C12         -5.7230     1.6580     0.1030 c6         1 DSU       0.368300
     27 O7          -5.8870     3.0870     0.1490 os         1 DSU      -0.452000
     28 C11         -5.5010     3.7300     1.3760 c3         1 DSU       0.152900
     29 C13         -6.3200     1.1120    -1.2400 c6         1 DSU       0.124300
     30 O9          -5.7510     1.8090    -2.3730 oh         1 DSU      -0.705000
     31 C14         -6.0440    -0.4210    -1.3410 c6         1 DSU       0.137300
     32 O10         -6.8130    -1.1360    -0.3510 oh         1 DSU      -0.666000
     33 C15         -4.5190    -0.7090    -1.1560 c6         1 DSU       0.156300
     34 O8          -4.2640    -2.1390    -1.1850 oh         1 DSU      -0.711000
     35 H2N1         3.3400     1.4840     0.2570 hc         1 DSU       0.073700
     36 H2N2         3.5670     2.1980    -1.3830 hc         1 DSU       0.073700
     37 H3N1         4.8780     0.1640    -2.0320 hc         1 DSU       0.052200
     38 H3N2         4.6340    -0.5170    -0.4240 hc         1 DSU       0.052200
     39 H4N1         5.8870     1.4150     0.5860 hc         1 DSU       0.038700
     40 H4N2         6.1300     2.0970    -1.0230 hc         1 DSU       0.038700
     41 H5N1         7.4300     0.0530    -1.6930 hc         1 DSU       0.039200
     42 H5N2         7.1860    -0.6290    -0.0850 hc         1 DSU       0.039200
     43 H6N1         8.4380     1.3020     0.9240 hc         1 DSU       0.037200
     44 H6N2         8.6810     1.9850    -0.6850 hc         1 DSU       0.037200
     45 H7N1         9.9810    -0.0590    -1.3550 hc         1 DSU       0.037200
     46 H7N2         9.7380    -0.7410     0.2530 hc         1 DSU       0.037200
     47 H8N1        10.9900     1.1900     1.2620 hc         1 DSU       0.036700
     48 H8N2        11.2330     1.8730    -0.3460 hc         1 DSU       0.036700
     49 H9N1        12.5370    -0.1710    -1.0170 hc         1 DSU       0.036700
     50 H9N2        12.2940    -0.8530     0.5910 hc         1 DSU       0.036700
     51 H101        14.5520     0.1820     0.4040 hc         1 DSU       0.031367
     52 H102        13.8250     1.7480    -0.0170 hc         1 DSU       0.031367
     53 H103        13.5800     1.0590     1.6060 hc         1 DSU       0.031367
     54 H6'1        -0.3360    -0.3330    -1.0670 h1         1 DSU       0.061200
     55 H6'2         0.7050    -1.7480    -1.3480 h1         1 DSU       0.061200
     56 H5           0.7680    -2.0920     1.1900 h1         1 DSU       0.082700
     57 H4          -1.6860    -2.4880    -0.5550 h1         1 DSU       0.080700
     58 H7          -0.3980    -4.2970    -0.3320 ho         1 DSU       0.518000
     59 H3          -1.8640    -2.6830     2.5170 h1         1 DSU       0.061700
     60 H6          -3.5490    -3.7580     1.6460 ho         1 DSU       0.527000
     61 H1'1        -3.7420    -0.2040     2.9180 h1         1 DSU       0.030700
     62 H1'2        -2.2200    -0.5200     3.7360 h1         1 DSU       0.030700
     63 H1          -2.6930     1.7150     3.7990 ho         1 DSU       0.499000
     64 H14         -4.5380    -0.4900     1.0120 h2         1 DSU       0.043700
     65 H11         -6.2290     1.1950     0.9630 h2         1 DSU       0.028700
     66 H61         -4.4310     3.5890     1.5750 h1         1 DSU       0.037367
     67 H62         -5.6950     4.8090     1.3180 h1         1 DSU       0.037367
     68 H63         -6.0680     3.3260     2.2240 h1         1 DSU       0.037367
     69 H12         -7.4080     1.2690    -1.2220 h1         1 DSU       0.038700
     70 HO4         -5.5170     2.7060    -2.0290 ho         1 DSU       0.527000
     71 H13         -6.3380    -0.7540    -2.3480 h1         1 DSU       0.070700
     72 HO3         -6.6290    -2.0910    -0.5020 ho         1 DSU       0.447000
     73 H2          -3.9870    -0.2220    -1.9870 h1         1 DSU       0.111700
     74 HO2         -4.0050    -2.4000    -0.2540 ho         1 DSU       0.521000
@<TRIPOS>BOND
     1     1     2 2   
     2     2     3 1   
     3     2    12 1   
     4     3     4 1   
     5     3    35 1   
     6     3    36 1   
     7     4     5 1   
     8     4    37 1   
     9     4    38 1   
    10     5     6 1   
    11     5    39 1   
    12     5    40 1   
    13     6     7 1   
    14     6    41 1   
    15     6    42 1   
    16     7     8 1   
    17     7    43 1   
    18     7    44 1   
    19     8     9 1   
    20     8    45 1   
    21     8    46 1   
    22     9    10 1   
    23     9    47 1   
    24     9    48 1   
    25    10    11 1   
    26    10    49 1   
    27    10    50 1   
    28    11    51 1   
    29    11    52 1   
    30    11    53 1   
    31    12    13 1   
    32    13    14 1   
    33    13    54 1   
    34    13    55 1   
    35    14    15 1   
    36    14    16 1   
    37    14    56 1   
    38    15    20 1   
    39    16    17 1   
    40    16    18 1   
    41    16    57 1   
    42    17    58 1   
    43    18    19 1   
    44    18    20 1   
    45    18    59 1   
    46    19    60 1   
    47    20    21 1   
    48    20    23 1   
    49    21    22 1   
    50    21    61 1   
    51    21    62 1   
    52    22    63 1   
    53    23    24 1   
    54    24    25 1   
    55    24    33 1   
    56    24    64 1   
    57    25    26 1   
    58    26    27 1   
    59    26    29 1   
    60    26    65 1   
    61    27    28 1   
    62    28    66 1   
    63    28    67 1   
    64    28    68 1   
    65    29    30 1   
    66    29    31 1   
    67    29    69 1   
    68    30    70 1   
    69    31    32 1   
    70    31    33 1   
    71    31    71 1   
    72    32    72 1   
    73    33    34 1   
    74    33    73 1   
    75    34    74 1   
@<TRIPOS>SUBSTRUCTURE
     1 DSU         1 TEMP              0 ****  ****    0 ROOT
