@<TRIPOS>MOLECULE
DSV
   40    42     1     0     0
SMALL
bcc


@<TRIPOS>ATOM
      1 C1           0.5020     1.4010    -0.1610 ca         1 DSV      -0.271500
      2 C2          -0.1210     0.5760    -1.0780 ca         1 DSV       0.020000
      3 C3          -1.4350     0.2120    -0.8240 ca         1 DSV      -0.015100
      4 C4          -2.1190     0.6610     0.3140 cp         1 DSV      -0.005000
      5 C5          -1.4590     1.4920     1.2200 ca         1 DSV      -0.109000
      6 C6          -0.1500     1.8570     0.9870 ca         1 DSV      -0.021000
      7 S10         -2.4160    -0.8120    -1.8360 ss         1 DSV      -0.085800
      8 C11         -3.7670    -0.6500    -0.7460 ca         1 DSV      -0.000100
      9 C12         -3.4740     0.1620     0.3590 cp         1 DSV      -0.043000
     10 CY1         -5.0170    -1.2370    -0.9070 ca         1 DSV      -0.110000
     11 CZ1         -5.9800    -1.0000     0.0570 ca         1 DSV      -0.125000
     12 CZ2         -5.7060    -0.1920     1.1640 ca         1 DSV      -0.148000
     13 CY2         -4.4610     0.3890     1.3190 ca         1 DSV      -0.083000
     14 S21          2.2040     1.8380    -0.4090 sy         1 DSV       1.278200
     15 O22          2.5060     1.6470    -1.8190 o          1 DSV      -0.642300
     16 O23          2.4260     3.1400     0.2030 o          1 DSV      -0.642300
     17 N24          3.1070     0.7700     0.4430 n7         1 DSV      -0.768100
     18 C10          2.9570    -0.6650     0.1600 c3         1 DSV       0.049500
     19 CBC          4.3380    -1.3250     0.3130 c3         1 DSV      -0.034700
     20 CC1          4.2770    -2.8420     0.1600 c3         1 DSV      -0.079600
     21 CC2          5.3300    -0.7410    -0.6880 c3         1 DSV      -0.079600
     22 C37          1.9040    -1.2780     1.1150 c          1 DSV       0.906600
     23 O39          1.8450    -0.7610     2.2500 o          1 DSV      -0.818300
     24 O40          1.2420    -2.2360     0.6830 o          1 DSV      -0.818300
     25 H2           0.3880     0.2320    -1.9680 ha         1 DSV       0.161000
     26 H5          -1.9660     1.8550     2.1040 ha         1 DSV       0.126000
     27 H6           0.3590     2.5020     1.6910 ha         1 DSV       0.148000
     28 HY1         -5.2340    -1.8620    -1.7640 ha         1 DSV       0.133000
     29 HZ1         -6.9600    -1.4480    -0.0490 ha         1 DSV       0.119000
     30 HZ2         -6.4760    -0.0180     1.9030 ha         1 DSV       0.122000
     31 HY2         -4.2560     1.0150     2.1780 ha         1 DSV       0.133000
     32 HN24         2.9910     0.9170     1.4460 hn         1 DSV       0.443800
     33 HC1          3.6700    -3.3180     0.9270 hc         1 DSV       0.025867
     34 HC1A         3.8650    -3.1210    -0.8120 hc         1 DSV       0.025867
     35 HC1B         5.2810    -3.2620     0.2260 hc         1 DSV       0.025867
     36 HBC          4.6940    -1.0990     1.3260 hc         1 DSV       0.048700
     37 HC2          5.4020     0.3420    -0.6080 hc         1 DSV       0.025867
     38 HC2A         6.3270    -1.1560    -0.5290 hc         1 DSV       0.025867
     39 HC2B         5.0310    -0.9820    -1.7120 hc         1 DSV       0.025867
     40 H10          2.6350    -0.7970    -0.8770 h1         1 DSV       0.056700
@<TRIPOS>BOND
     1     1     2 ar  
     2     1     6 ar  
     3     1    14 1   
     4     2     3 ar  
     5     2    25 1   
     6     3     4 ar  
     7     3     7 1   
     8     4     5 ar  
     9     4     9 1   
    10     5     6 ar  
    11     5    26 1   
    12     6    27 1   
    13     7     8 1   
    14     8     9 ar  
    15     8    10 ar  
    16     9    13 ar  
    17    10    11 ar  
    18    10    28 1   
    19    11    12 ar  
    20    11    29 1   
    21    12    13 ar  
    22    12    30 1   
    23    13    31 1   
    24    14    15 2   
    25    14    16 2   
    26    14    17 1   
    27    17    18 1   
    28    17    32 1   
    29    18    19 1   
    30    18    22 1   
    31    18    40 1   
    32    19    20 1   
    33    19    21 1   
    34    19    36 1   
    35    20    33 1   
    36    20    34 1   
    37    20    35 1   
    38    21    37 1   
    39    21    38 1   
    40    21    39 1   
    41    22    23 1   
    42    22    24 1   
@<TRIPOS>SUBSTRUCTURE
     1 DSV         1 TEMP              0 ****  ****    0 ROOT
