@<TRIPOS>MOLECULE
DSV
   40    42     1     0     0
SMALL
No Charge or Current Charge


@<TRIPOS>ATOM
      1 C1           0.6700     1.6670     0.0540 ca         1 DSV      -0.271500
      2 C2           0.1290     1.1500    -1.1420 ca         1 DSV       0.038000
      3 C3          -1.1420     0.5650    -1.0870 ca         1 DSV      -0.142000
      4 C4          -1.8920     0.4690     0.0930 cp         1 DSV      -0.005000
      5 C5          -1.3420     0.9860     1.2850 ca         1 DSV      -0.091000
      6 C6          -0.0630     1.5820     1.2640 ca         1 DSV      -0.003000
      7 S10         -2.0700    -0.1740    -2.4300 ss         1 DSV       0.168000
      8 C11         -3.4680    -0.6060    -1.3940 ca         1 DSV      -0.127000
      9 C12         -3.2060    -0.1910    -0.0800 cp         1 DSV      -0.043000
     10 CY1         -4.6530    -1.2510    -1.7680 ca         1 DSV      -0.092000
     11 CZ1         -5.6200    -1.4880    -0.7720 ca         1 DSV      -0.107000
     12 CZ2         -5.3850    -1.0820     0.5600 ca         1 DSV      -0.130000
     13 CY2         -4.1820    -0.4340     0.9120 ca         1 DSV      -0.065000
     14 S21          2.3100     2.3990     0.0290 sy         1 DSV       1.136600
     15 O22          2.4770     3.1280    -1.2320 o          1 DSV      -0.571500
     16 O23          2.6300     2.9970     1.3260 o          1 DSV      -0.571500
     17 N24          3.2840     1.0500    -0.1260 n7         1 DSV      -0.823300
     18 C10          3.0400    -0.1530     0.7450 c3         1 DSV       0.049500
     19 CBC          3.8200    -1.3780     0.1730 c3         1 DSV      -0.034700
     20 CC1          3.6770    -2.6380     1.0640 c3         1 DSV      -0.079600
     21 CC2          3.4000    -1.7120    -1.2820 c3         1 DSV      -0.079600
     22 C37          3.3790     0.1060     2.2640 c          1 DSV       0.696000
     23 O39          4.5040     0.5020     2.5450 o          1 DSV      -0.713000
     24 O40          2.4980    -0.0580     3.0980 o          1 DSV      -0.713000
     25 H2           0.6810     1.1940    -2.0790 ha         1 DSV       0.143000
     26 H5          -1.8930     0.9260     2.2190 ha         1 DSV       0.108000
     27 H6           0.3560     1.9690     2.1910 ha         1 DSV       0.130000
     28 HY1         -4.8220    -1.5600    -2.7980 ha         1 DSV       0.115000
     29 HZ1         -6.5520    -1.9870    -1.0310 ha         1 DSV       0.101000
     30 HZ2         -6.1380    -1.2700     1.3220 ha         1 DSV       0.104000
     31 HY2         -4.0120    -0.1250     1.9400 ha         1 DSV       0.115000
     32 HN24         4.1880     1.4480     0.1240 hn         1 DSV       0.499000
     33 HC1          4.0960    -2.4700     2.0630 hc         1 DSV       0.025867
     34 HC1A         2.6220    -2.9180     1.1740 hc         1 DSV       0.025867
     35 HC1B         4.2120    -3.4870     0.6230 hc         1 DSV       0.025867
     36 HBC          4.8870    -1.1190     0.1540 hc         1 DSV       0.048700
     37 HC2          3.6090    -0.8780    -1.9610 hc         1 DSV       0.025867
     38 HC2A         3.9510    -2.5850    -1.6550 hc         1 DSV       0.025867
     39 HC2B         2.3270    -1.9370    -1.3350 hc         1 DSV       0.025867
     40 H10          1.9780    -0.4300     0.7100 h1         1 DSV       0.056700
@<TRIPOS>BOND
     1     1     2 ar  
     2     1     6 ar  
     3     1    14 1   
     4     2     3 ar  
     5     2    25 1   
     6     3     4 ar  
     7     3     7 1   
     8     4     5 ar  
     9     4     9 1   
    10     5     6 ar  
    11     5    26 1   
    12     6    27 1   
    13     7     8 1   
    14     8     9 ar  
    15     8    10 ar  
    16     9    13 ar  
    17    10    11 ar  
    18    10    28 1   
    19    11    12 ar  
    20    11    29 1   
    21    12    13 ar  
    22    12    30 1   
    23    13    31 1   
    24    14    15 2   
    25    14    16 2   
    26    14    17 1   
    27    17    18 1   
    28    17    32 1   
    29    18    19 1   
    30    18    22 1   
    31    18    40 1   
    32    19    20 1   
    33    19    21 1   
    34    19    36 1   
    35    20    33 1   
    36    20    34 1   
    37    20    35 1   
    38    21    37 1   
    39    21    38 1   
    40    21    39 1   
    41    22    23 1   
    42    22    24 1   
@<TRIPOS>SUBSTRUCTURE
     1 DSV         1 TEMP              0 ****  ****    0 ROOT
