@<TRIPOS>MOLECULE
DSX
   63    64     1     0     0
SMALL
bcc


@<TRIPOS>ATOM
      1 C1          -3.2790    -1.5340    -3.1370 ca         1 DSX      -0.129000
      2 C2          -2.7440    -2.3680    -2.1650 ca         1 DSX      -0.123500
      3 C3          -2.8490    -2.0300    -0.8230 ca         1 DSX      -0.124000
      4 C4          -3.4850    -0.8560    -0.4310 ca         1 DSX      -0.089300
      5 C5          -4.0050    -0.0190    -1.4160 ca         1 DSX      -0.124000
      6 C6          -3.9070    -0.3540    -2.7580 ca         1 DSX      -0.123500
      7 C10         -3.6250    -0.4930     1.0230 c3         1 DSX      -0.042100
      8 C13         -2.5760     0.5220     1.4940 c3         1 DSX       0.032700
      9 C14         -2.9610     1.0320     2.8850 c          1 DSX       0.659100
     10 O15         -3.7200     1.9830     3.0060 o          1 DSX      -0.593100
     11 N16         -2.4780     0.3420     3.9210 ns         1 DSX      -0.567900
     12 C17         -2.8000     0.6730     5.2890 c3         1 DSX       0.095300
     13 N18         -1.2590    -0.0670     1.4590 ns         1 DSX      -0.581900
     14 C19         -0.1550     0.6800     1.6480 c          1 DSX       0.653100
     15 O20         -0.2160     1.8780     1.8770 o          1 DSX      -0.583100
     16 C21          1.1710    -0.0600     1.5820 c3         1 DSX      -0.126700
     17 C22          1.8430     0.0760     2.9600 c3         1 DSX      -0.068400
     18 C23          2.9020    -0.9640     3.3430 c3         1 DSX      -0.061700
     19 C24          3.4570    -0.6120     4.7200 c3         1 DSX      -0.090100
     20 C25          2.3470    -2.3840     3.3390 c3         1 DSX      -0.090100
     21 C27          1.9880     0.5350     0.4180 c3         1 DSX      -0.121700
     22 C28          1.1980     0.4270    -0.8860 c3         1 DSX      -0.020300
     23 S29          2.1090     1.2370    -2.2320 ss         1 DSX      -0.187000
     24 C30          1.0560     0.9120    -3.5870 cc         1 DSX       0.027800
     25 S31         -0.5920     0.4390    -3.3990 ss         1 DSX      -0.088800
     26 C32         -0.8310     0.4070    -5.0990 cc         1 DSX      -0.114100
     27 C33          0.3010     0.7530    -5.7700 cd         1 DSX      -0.140000
     28 C34          1.3930     1.0380    -4.9060 cd         1 DSX      -0.128000
     29 C35          3.2990    -0.2130     0.2410 c          1 DSX       0.678100
     30 O36          3.3420    -1.3940    -0.0500 o          1 DSX      -0.569100
     31 N37          4.3820     0.5540     0.4460 ns         1 DSX      -0.452400
     32 O38          5.6240     0.0640     0.1930 oh         1 DSX      -0.375100
     33 H1          -3.2100    -1.8050    -4.1830 ha         1 DSX       0.133000
     34 H2          -2.2510    -3.2880    -2.4520 ha         1 DSX       0.135000
     35 H3          -2.4500    -2.7030    -0.0700 ha         1 DSX       0.130000
     36 H5          -4.5070     0.8980    -1.1270 ha         1 DSX       0.130000
     37 H6          -4.3300     0.3010    -3.5090 ha         1 DSX       0.135000
     38 H101        -3.5660    -1.3900     1.6450 hc         1 DSX       0.064700
     39 H102        -4.6110    -0.0590     1.1970 hc         1 DSX       0.064700
     40 H13         -2.6050     1.3920     0.8320 h1         1 DSX       0.099700
     41 HN6         -1.8690    -0.4410     3.7490 hn         1 DSX       0.314500
     42 H171        -2.2850    -0.0250     5.9430 h1         1 DSX       0.041033
     43 H172        -2.4770     1.6830     5.5420 h1         1 DSX       0.041033
     44 H173        -3.8710     0.5970     5.4790 h1         1 DSX       0.041033
     45 HN8         -1.1610    -1.0460     1.2410 hn         1 DSX       0.322500
     46 H21          0.9880    -1.1160     1.3620 hc         1 DSX       0.073700
     47 H221         2.2660     1.0810     3.0450 hc         1 DSX       0.051700
     48 H222         1.0610     0.0200     3.7270 hc         1 DSX       0.051700
     49 H23          3.7380    -0.9240     2.6400 hc         1 DSX       0.050700
     50 H241         4.2480    -1.3040     5.0140 hc         1 DSX       0.035200
     51 H242         3.8750     0.3960     4.7370 hc         1 DSX       0.035200
     52 H243         2.6750    -0.6610     5.4810 hc         1 DSX       0.035200
     53 H251         1.4910    -2.4700     4.0130 hc         1 DSX       0.035200
     54 H252         2.0280    -2.7040     2.3470 hc         1 DSX       0.035200
     55 H253         3.1050    -3.0930     3.6780 hc         1 DSX       0.035200
     56 H27          2.1710     1.5920     0.6360 hc         1 DSX       0.085700
     57 H281         1.0280    -0.6210    -1.1380 h1         1 DSX       0.083700
     58 H282         0.2310     0.9210    -0.7860 h1         1 DSX       0.083700
     59 H32         -1.7880     0.1200    -5.5060 h4         1 DSX       0.165000
     60 H33          0.3660     0.7890    -6.8480 ha         1 DSX       0.152000
     61 H34          2.3800     1.3170    -5.2470 ha         1 DSX       0.160000
     62 HN7          4.3290     1.5540     0.5720 hn         1 DSX       0.342500
     63 HO8          5.9830    -0.2200     1.0450 ho         1 DSX       0.401000
@<TRIPOS>BOND
     1     1     2 ar  
     2     1     6 ar  
     3     1    33 1   
     4     2     3 ar  
     5     2    34 1   
     6     3     4 ar  
     7     3    35 1   
     8     4     5 ar  
     9     4     7 1   
    10     5     6 ar  
    11     5    36 1   
    12     6    37 1   
    13     7     8 1   
    14     7    38 1   
    15     7    39 1   
    16     8     9 1   
    17     8    13 1   
    18     8    40 1   
    19     9    10 2   
    20     9    11 1   
    21    11    12 1   
    22    11    41 1   
    23    12    42 1   
    24    12    43 1   
    25    12    44 1   
    26    13    14 1   
    27    13    45 1   
    28    14    15 2   
    29    14    16 1   
    30    16    17 1   
    31    16    21 1   
    32    16    46 1   
    33    17    18 1   
    34    17    47 1   
    35    17    48 1   
    36    18    19 1   
    37    18    20 1   
    38    18    49 1   
    39    19    50 1   
    40    19    51 1   
    41    19    52 1   
    42    20    53 1   
    43    20    54 1   
    44    20    55 1   
    45    21    22 1   
    46    21    29 1   
    47    21    56 1   
    48    22    23 1   
    49    22    57 1   
    50    22    58 1   
    51    23    24 1   
    52    24    25 1   
    53    24    28 2   
    54    25    26 1   
    55    26    27 2   
    56    26    59 1   
    57    27    28 1   
    58    27    60 1   
    59    28    61 1   
    60    29    30 2   
    61    29    31 1   
    62    31    32 1   
    63    31    62 1   
    64    32    63 1   
@<TRIPOS>SUBSTRUCTURE
     1 DSX         1 TEMP              0 ****  ****    0 ROOT
