@<TRIPOS>MOLECULE
DSX
   63    64     1     0     0
SMALL
No Charge or Current Charge


@<TRIPOS>ATOM
      1 C1          -1.5550    -1.9470    -2.8340 ca         1 DSX      -0.111000
      2 C2          -1.5050    -2.7300    -1.6690 ca         1 DSX      -0.105500
      3 C3          -2.1920    -2.3160    -0.5140 ca         1 DSX      -0.106000
      4 C4          -2.9260    -1.1120    -0.5150 ca         1 DSX      -0.089300
      5 C5          -2.9700    -0.3310    -1.6860 ca         1 DSX      -0.106000
      6 C6          -2.2920    -0.7520    -2.8430 ca         1 DSX      -0.105500
      7 C10         -3.6570    -0.6510     0.7440 c3         1 DSX      -0.042100
      8 C13         -2.8500     0.3880     1.5610 c3         1 DSX       0.032700
      9 C14         -3.5640     0.7510     2.8980 c          1 DSX       0.592100
     10 O15         -4.6850     1.2400     2.9310 o          1 DSX      -0.593100
     11 N16         -2.8600     0.4900     4.0560 ns         1 DSX      -0.500900
     12 C17         -3.3530     0.7600     5.4070 c3         1 DSX       0.095300
     13 N18         -1.4600    -0.0920     1.7620 ns         1 DSX      -0.514900
     14 C19         -0.3450     0.7140     1.7220 c          1 DSX       0.586100
     15 O20         -0.4270     1.9320     1.7300 o          1 DSX      -0.583100
     16 C21          1.0000    -0.0410     1.6570 c3         1 DSX      -0.126700
     17 C22          1.8090     0.2510     2.9630 c3         1 DSX      -0.068400
     18 C23          2.9740    -0.7130     3.3330 c3         1 DSX      -0.061700
     19 C24          3.7200    -0.2030     4.5870 c3         1 DSX      -0.090100
     20 C25          2.5120    -2.1760     3.5390 c3         1 DSX      -0.090100
     21 C27          1.7810     0.2520     0.3180 c3         1 DSX      -0.121700
     22 C28          0.8500     0.4360    -0.9160 c3         1 DSX       0.027600
     23 S29          1.8240     0.8640    -2.4280 ss         1 DSX      -0.108000
     24 C30          0.5700     1.3980    -3.5370 cc         1 DSX      -0.244000
     25 S31         -0.7430     2.5080    -3.1890 ss         1 DSX       0.201000
     26 C32         -1.3360     2.2950    -4.8390 cc         1 DSX      -0.241000
     27 C33         -0.5600     1.4000    -5.5440 cd         1 DSX      -0.122000
     28 C34          0.5330     0.8760    -4.7990 cd         1 DSX      -0.110000
     29 C35          2.8250    -0.8400    -0.0070 c          1 DSX       0.611100
     30 O36          2.5170    -2.0140    -0.1720 o          1 DSX      -0.569100
     31 N37          4.1420    -0.3980    -0.0950 ns         1 DSX      -0.385400
     32 O38          5.1780    -1.2500    -0.6440 oh         1 DSX      -0.414100
     33 H1          -1.0260    -2.2670    -3.7290 ha         1 DSX       0.115000
     34 H2          -0.9370    -3.6570    -1.6600 ha         1 DSX       0.117000
     35 H3          -2.1510    -2.9320     0.3810 ha         1 DSX       0.112000
     36 H5          -3.5310     0.6000    -1.7020 ha         1 DSX       0.112000
     37 H6          -2.3370    -0.1520    -3.7480 ha         1 DSX       0.117000
     38 H101        -3.8760    -1.5140     1.3850 hc         1 DSX       0.064700
     39 H102        -4.6300    -0.2200     0.4760 hc         1 DSX       0.064700
     40 H13         -2.8100     1.3180     0.9780 h1         1 DSX       0.099700
     41 HN6         -1.9370     0.0910     3.9400 hn         1 DSX       0.314500
     42 H171        -2.5950     0.4590     6.1410 h1         1 DSX       0.041033
     43 H172        -3.5590     1.8320     5.5190 h1         1 DSX       0.041033
     44 H173        -4.2750     0.1900     5.5850 h1         1 DSX       0.041033
     45 HN8         -1.2960    -1.0920     1.7380 hn         1 DSX       0.322500
     46 H21          0.7410    -1.1060     1.6530 hc         1 DSX       0.073700
     47 H221         2.1980     1.2760     2.9060 hc         1 DSX       0.051700
     48 H222         1.1060     0.2500     3.8060 hc         1 DSX       0.051700
     49 H23          3.7070    -0.7070     2.5210 hc         1 DSX       0.050700
     50 H241         4.5760    -0.8470     4.8200 hc         1 DSX       0.035200
     51 H242         4.0990     0.8140     4.4280 hc         1 DSX       0.035200
     52 H243         3.0550    -0.1880     5.4590 hc         1 DSX       0.035200
     53 H251         1.7250    -2.2340     4.3000 hc         1 DSX       0.035200
     54 H252         2.1270    -2.6100     2.6100 hc         1 DSX       0.035200
     55 H253         3.3500    -2.8020     3.8670 hc         1 DSX       0.035200
     56 H27          2.3090     1.2050     0.4470 hc         1 DSX       0.085700
     57 H281         0.2770    -0.4800    -1.1070 h1         1 DSX       0.083700
     58 H282         0.1430     1.2540    -0.7390 h1         1 DSX       0.083700
     59 H32         -2.2170     2.8350    -5.1600 h4         1 DSX       0.147000
     60 H33         -0.7640     1.1210    -6.5740 ha         1 DSX       0.134000
     61 H34          1.2480     0.1570    -5.1880 ha         1 DSX       0.142000
     62 HN7          4.3350     0.6030    -0.1050 hn         1 DSX       0.342500
     63 HO8          5.9030    -1.1930     0.0220 ho         1 DSX       0.440000
@<TRIPOS>BOND
     1     1     2 ar  
     2     1     6 ar  
     3     1    33 1   
     4     2     3 ar  
     5     2    34 1   
     6     3     4 ar  
     7     3    35 1   
     8     4     5 ar  
     9     4     7 1   
    10     5     6 ar  
    11     5    36 1   
    12     6    37 1   
    13     7     8 1   
    14     7    38 1   
    15     7    39 1   
    16     8     9 1   
    17     8    13 1   
    18     8    40 1   
    19     9    10 2   
    20     9    11 1   
    21    11    12 1   
    22    11    41 1   
    23    12    42 1   
    24    12    43 1   
    25    12    44 1   
    26    13    14 1   
    27    13    45 1   
    28    14    15 2   
    29    14    16 1   
    30    16    17 1   
    31    16    21 1   
    32    16    46 1   
    33    17    18 1   
    34    17    47 1   
    35    17    48 1   
    36    18    19 1   
    37    18    20 1   
    38    18    49 1   
    39    19    50 1   
    40    19    51 1   
    41    19    52 1   
    42    20    53 1   
    43    20    54 1   
    44    20    55 1   
    45    21    22 1   
    46    21    29 1   
    47    21    56 1   
    48    22    23 1   
    49    22    57 1   
    50    22    58 1   
    51    23    24 1   
    52    24    25 1   
    53    24    28 2   
    54    25    26 1   
    55    26    27 2   
    56    26    59 1   
    57    27    28 1   
    58    27    60 1   
    59    28    61 1   
    60    29    30 2   
    61    29    31 1   
    62    31    32 1   
    63    31    62 1   
    64    32    63 1   
@<TRIPOS>SUBSTRUCTURE
     1 DSX         1 TEMP              0 ****  ****    0 ROOT
