@<TRIPOS>MOLECULE
DSY
   29    30     1     0     0
SMALL
No Charge or Current Charge


@<TRIPOS>ATOM
      1 C1          -1.0970    -0.0700    -0.8800 ca         1 DSY      -0.024000
      2 C2           0.1620     0.0920    -1.4930 ca         1 DSY      -0.216500
      3 C3           1.3110     0.1710    -0.6830 ca         1 DSY      -0.016000
      4 C4           1.2030     0.1090     0.7170 ca         1 DSY      -0.141000
      5 C4A         -0.0590    -0.0340     1.3410 ca         1 DSY      -0.017000
      6 C5          -0.1940    -0.0980     2.7580 ca         1 DSY       0.257000
      7 C6          -1.4760    -0.2750     3.3170 ca         1 DSY      -0.169000
      8 C7          -2.6120    -0.3770     2.4990 ca         1 DSY      -0.125000
      9 C8          -2.4800    -0.3040     1.1060 ca         1 DSY      -0.097000
     10 C8A         -1.2110    -0.1340     0.5230 ca         1 DSY      -0.052000
     11 N            0.9130     0.0220     3.6360 nh         1 DSY      -0.769400
     12 CM1          1.6160     1.3130     3.7790 c3         1 DSY       0.175600
     13 CM2          1.1520    -0.9900     4.6850 c3         1 DSY       0.175600
     14 S            0.3070     0.1610    -3.3390 s6         1 DSY       1.262100
     15 O1S          0.4820    -1.2620    -3.6650 o          1 DSY      -0.693533
     16 O2S          1.4960     1.0080    -3.5270 o          1 DSY      -0.693533
     17 O3S         -0.9820     0.7510    -3.7320 o          1 DSY      -0.693533
     18 H1          -1.9910    -0.1510    -1.4950 ha         1 DSY       0.135000
     19 H3           2.2950     0.2770    -1.1350 ha         1 DSY       0.124000
     20 H4           2.1110     0.1640     1.3090 ha         1 DSY       0.108000
     21 H6          -1.5940    -0.3210     4.3960 ha         1 DSY       0.095000
     22 H7          -3.5940    -0.5090     2.9470 ha         1 DSY       0.095000
     23 H8          -3.3660    -0.3820     0.4800 ha         1 DSY       0.110000
     24 HM11         2.6970     1.1770     3.6420 h1         1 DSY       0.028200
     25 HM12         1.2640     2.0310     3.0260 h1         1 DSY       0.028200
     26 HM13         1.4350     1.7420     4.7740 h1         1 DSY       0.028200
     27 HM21         0.7580    -1.9670     4.3730 h1         1 DSY       0.028200
     28 HM22         2.2290    -1.1040     4.8690 h1         1 DSY       0.028200
     29 HM23         0.6630    -0.6960     5.6230 h1         1 DSY       0.028200
@<TRIPOS>BOND
     1     1     2 ar  
     2     1    10 ar  
     3     1    18 1   
     4     2     3 ar  
     5     2    14 1   
     6     3     4 ar  
     7     3    19 1   
     8     4     5 ar  
     9     4    20 1   
    10     5     6 ar  
    11     5    10 ar  
    12     6     7 ar  
    13     6    11 1   
    14     7     8 ar  
    15     7    21 1   
    16     8     9 ar  
    17     8    22 1   
    18     9    10 ar  
    19     9    23 1   
    20    11    12 1   
    21    11    13 1   
    22    12    24 1   
    23    12    25 1   
    24    12    26 1   
    25    13    27 1   
    26    13    28 1   
    27    13    29 1   
    28    14    15 1   
    29    14    16 1   
    30    14    17 1   
@<TRIPOS>SUBSTRUCTURE
     1 DSY         1 TEMP              0 ****  ****    0 ROOT
