@<TRIPOS>MOLECULE
DSY
   29    30     1     0     0
SMALL
bcc


@<TRIPOS>ATOM
      1 C1          -1.1040     0.0530    -0.8630 ca         1 DSY      -0.042000
      2 C2           0.1150     0.1440    -1.4700 ca         1 DSY      -0.216500
      3 C3           1.2980     0.0770    -0.7020 ca         1 DSY      -0.034000
      4 C4           1.2260    -0.0470     0.6560 ca         1 DSY      -0.159000
      5 C4A         -0.0210    -0.1060     1.3240 ca         1 DSY      -0.017000
      6 C5          -0.1210    -0.2270     2.7460 ca         1 DSY       0.118600
      7 C6          -1.3640    -0.4110     3.3100 ca         1 DSY      -0.187000
      8 C7          -2.5300    -0.4340     2.5200 ca         1 DSY      -0.143000
      9 C8          -2.4620    -0.2530     1.1670 ca         1 DSY      -0.115000
     10 C8A         -1.2040    -0.0910     0.5420 ca         1 DSY      -0.052000
     11 N            1.0600    -0.1760     3.5050 nh         1 DSY      -0.631000
     12 CM1          1.6630     1.1460     3.6010 c3         1 DSY       0.175600
     13 CM2          1.0270    -0.8340     4.7930 c3         1 DSY       0.175600
     14 S            0.2610     0.3110    -3.2440 s6         1 DSY       1.262100
     15 O1S          1.0120    -0.8830    -3.6700 o          1 DSY      -0.693533
     16 O2S          1.0100     1.5630    -3.4460 o          1 DSY      -0.693533
     17 O3S         -1.1150     0.3560    -3.7650 o          1 DSY      -0.693533
     18 H1          -2.0140     0.0810    -1.4490 ha         1 DSY       0.153000
     19 H3           2.2660     0.1100    -1.1860 ha         1 DSY       0.142000
     20 H4           2.1380    -0.1290     1.2320 ha         1 DSY       0.126000
     21 H6          -1.4660    -0.5200     4.3810 ha         1 DSY       0.113000
     22 H7          -3.4870    -0.5770     3.0030 ha         1 DSY       0.113000
     23 H8          -3.3590    -0.2470     0.5610 ha         1 DSY       0.128000
     24 HM11         2.6860     1.0550     3.9670 h1         1 DSY       0.028200
     25 HM12         1.6990     1.6370     2.6310 h1         1 DSY       0.028200
     26 HM13         1.1120     1.8010     4.2890 h1         1 DSY       0.028200
     27 HM21         0.6390    -1.8470     4.6930 h1         1 DSY       0.028200
     28 HM22         2.0460    -0.9010     5.1780 h1         1 DSY       0.028200
     29 HM23         0.4270    -0.3060     5.5470 h1         1 DSY       0.028200
@<TRIPOS>BOND
     1     1     2 ar  
     2     1    10 ar  
     3     1    18 1   
     4     2     3 ar  
     5     2    14 1   
     6     3     4 ar  
     7     3    19 1   
     8     4     5 ar  
     9     4    20 1   
    10     5     6 ar  
    11     5    10 ar  
    12     6     7 ar  
    13     6    11 1   
    14     7     8 ar  
    15     7    21 1   
    16     8     9 ar  
    17     8    22 1   
    18     9    10 ar  
    19     9    23 1   
    20    11    12 1   
    21    11    13 1   
    22    12    24 1   
    23    12    25 1   
    24    12    26 1   
    25    13    27 1   
    26    13    28 1   
    27    13    29 1   
    28    14    15 1   
    29    14    16 1   
    30    14    17 1   
@<TRIPOS>SUBSTRUCTURE
     1 DSY         1 TEMP              0 ****  ****    0 ROOT
