@<TRIPOS>MOLECULE
DSZ
   49    51     1     0     0
SMALL
No Charge or Current Charge


@<TRIPOS>ATOM
      1 C           -2.3430     0.9920    -0.7040 c          1 DSZ       0.572100
      2 N           -1.1650     3.0870    -1.6580 n8         1 DSZ      -0.966200
      3 O           -2.7920     0.5930    -1.7700 o          1 DSZ      -0.555100
      4 N1           3.1380     2.9410     0.7630 nb         1 DSZ      -0.312000
      5 C2           3.7730     1.8320     1.2090 ca         1 DSZ       0.180900
      6 N3           3.5400     0.5560     0.8220 nb         1 DSZ      -0.224000
      7 C4           2.5800     0.3850    -0.1100 ca         1 DSZ       0.142500
      8 C5           1.8930     1.4470    -0.6430 ca         1 DSZ      -0.095600
      9 C6           2.1940     2.7430    -0.1690 ca         1 DSZ       0.453900
     10 N6           1.5380     3.8580    -0.5870 nv         1 DSZ      -1.058900
     11 N7           0.9730     1.0520    -1.6050 nc         1 DSZ      -0.539100
     12 C8           1.1230    -0.2830    -1.6090 cd         1 DSZ       0.412700
     13 N9           2.0840    -0.7530    -0.6980 na         1 DSZ      -0.288300
     14 CA          -1.8970     2.4920    -0.4920 c3         1 DSZ       0.119500
     15 CB          -3.0890     3.4150    -0.1500 c3         1 DSZ      -0.207400
     16 CG          -3.6970     2.9920     1.1920 c          1 DSZ       0.735000
     17 C1           2.4510    -2.1530    -0.4820 c5         1 DSZ       0.315300
     18 C7           2.8150    -2.5830     0.9980 c5         1 DSZ       0.079300
     19 O2           4.2070    -2.9130     1.1920 oh         1 DSZ      -0.694000
     20 C3           1.9210    -3.8410     1.2290 c5         1 DSZ       0.106300
     21 O3           2.6310    -5.0100     0.8060 oh         1 DSZ      -0.702000
     22 C9           0.6990    -3.5010     0.3250 c5         1 DSZ       0.167300
     23 O4           1.3350    -2.9880    -0.8710 os         1 DSZ      -0.415000
     24 C10         -0.2910    -2.4710     0.9570 c3         1 DSZ       0.189600
     25 O5          -1.3630    -2.2110     0.0300 os         1 DSZ      -0.551700
     26 NAT         -2.1210     0.1680     0.3600 ns         1 DSZ      -0.624300
     27 OAX         -3.8140    -1.6550    -0.2730 o          1 DSZ      -0.551500
     28 OAY         -2.7610    -1.5870     2.0500 o          1 DSZ      -0.551500
     29 SBE         -2.6680    -1.3860     0.6010 s6         1 DSZ       1.431500
     30 OD1         -3.1900     3.4270     2.2140 o          1 DSZ      -0.731000
     31 OD2         -4.6110     2.1840     1.1790 o          1 DSZ      -0.731000
     32 HN          -0.4660     2.3900    -1.9630 hn         1 DSZ       0.400500
     33 HNA         -1.8100     3.1170    -2.4570 hn         1 DSZ       0.400500
     34 HN6          1.6390     4.6930    -0.0180 hn         1 DSZ       0.509500
     35 HN6A         0.6100     3.7160    -0.9960 hn         1 DSZ       0.509500
     36 HA          -1.2030     2.4920     0.3610 h1         1 DSZ       0.089700
     37 HB          -2.6710     4.4260    -0.0610 hc         1 DSZ       0.028200
     38 HBA         -3.8200     3.3090    -0.9610 hc         1 DSZ       0.028200
     39 H1           3.2970    -2.3470    -1.1530 h2         1 DSZ       0.121700
     40 H2           2.5140    -1.7970     1.7050 h1         1 DSZ       0.053700
     41 HO2          4.7000    -2.0650     1.3090 ho         1 DSZ       0.513000
     42 H3           1.6290    -3.9350     2.2840 h1         1 DSZ       0.052700
     43 HO3          3.5750    -4.7070     0.8440 ho         1 DSZ       0.520000
     44 H4           0.1290    -4.4050     0.0710 h1         1 DSZ       0.110700
     45 H5          -0.6690    -2.9210     1.8850 h1         1 DSZ       0.049200
     46 H5'A         0.2310    -1.5420     1.2210 h1         1 DSZ       0.049200
     47 HNAT        -1.7810     0.5520     1.2230 hn         1 DSZ       0.353500
     48 H6           4.5440     1.9800     1.9620 h5         1 DSZ       0.039100
     49 H8           0.5670    -0.9680    -2.2390 h5         1 DSZ       0.064800
@<TRIPOS>BOND
     1     1     3 2   
     2     1    14 1   
     3     1    26 1   
     4     2    14 1   
     5     2    32 1   
     6     2    33 1   
     7     4     5 ar  
     8     4     9 ar  
     9     5     6 ar  
    10     5    48 1   
    11     6     7 ar  
    12     7     8 ar  
    13     7    13 1   
    14     8     9 ar  
    15     8    11 1   
    16     9    10 1   
    17    10    34 1   
    18    10    35 1   
    19    11    12 2   
    20    12    13 1   
    21    12    49 1   
    22    13    17 1   
    23    14    15 1   
    24    14    36 1   
    25    15    16 1   
    26    15    37 1   
    27    15    38 1   
    28    16    30 1   
    29    16    31 1   
    30    17    18 1   
    31    17    23 1   
    32    17    39 1   
    33    18    19 1   
    34    18    20 1   
    35    18    40 1   
    36    19    41 1   
    37    20    21 1   
    38    20    22 1   
    39    20    42 1   
    40    21    43 1   
    41    22    23 1   
    42    22    24 1   
    43    22    44 1   
    44    24    25 1   
    45    24    45 1   
    46    24    46 1   
    47    25    29 1   
    48    26    29 1   
    49    26    47 1   
    50    27    29 2   
    51    28    29 2   
@<TRIPOS>SUBSTRUCTURE
     1 DSZ         1 TEMP              0 ****  ****    0 ROOT
