@<TRIPOS>MOLECULE
DSZ
   49    51     1     0     0
SMALL
bcc


@<TRIPOS>ATOM
      1 C           -2.1390     0.6140    -0.6410 c          1 DSZ       0.639100
      2 N           -1.4280     2.9870    -0.4780 n8         1 DSZ      -0.855800
      3 O           -1.5960     0.4170    -1.7000 o          1 DSZ      -0.555100
      4 N1           4.6380     2.7940    -0.9600 nb         1 DSZ      -0.838000
      5 C2           5.0300     1.5330    -1.1210 ca         1 DSZ       0.706900
      6 N3           4.3850     0.4250    -0.7980 nb         1 DSZ      -0.750000
      7 C4           3.2000     0.6860    -0.2540 ca         1 DSZ       0.470800
      8 C5           2.6580     1.9400    -0.0290 ca         1 DSZ      -0.226200
      9 C6           3.4440     3.0420    -0.4120 ca         1 DSZ       0.782200
     10 N6           3.0410     4.3040    -0.2600 nv         1 DSZ      -0.948500
     11 N7           1.4160     1.8360     0.5450 nc         1 DSZ      -0.539100
     12 C8           1.2200     0.5580     0.6640 cd         1 DSZ       0.412700
     13 N9           2.2620    -0.1970     0.2030 na         1 DSZ      -0.259000
     14 CA          -2.3570     1.9880    -0.0160 c3         1 DSZ       0.119500
     15 CB          -3.7920     2.4260    -0.3140 c3         1 DSZ      -0.207400
     16 CG          -4.1990     3.6780     0.4900 c          1 DSZ       0.945600
     17 C1           2.3300    -1.6340     0.1440 c5         1 DSZ       0.262800
     18 C7           2.2040    -2.3150     1.5070 c5         1 DSZ       0.056100
     19 O2           3.4540    -2.3750     2.1210 oh         1 DSZ      -0.571800
     20 C3           1.6100    -3.6700     1.1130 c5         1 DSZ       0.083100
     21 O3           2.5940    -4.5190     0.5880 oh         1 DSZ      -0.579800
     22 C9           0.6780    -3.2640    -0.0230 c5         1 DSZ       0.144100
     23 O4           1.2630    -2.1150    -0.6280 os         1 DSZ      -0.368600
     24 C10         -0.7180    -2.9510     0.4740 c3         1 DSZ       0.166400
     25 O5          -1.4750    -2.5450    -0.6800 os         1 DSZ      -0.528500
     26 NAT         -2.6660    -0.4290     0.1100 ns         1 DSZ      -0.691300
     27 OAX         -3.4810    -1.8990    -1.8060 o          1 DSZ      -0.622300
     28 OAY         -3.6120    -2.6560     0.5840 o          1 DSZ      -0.622300
     29 SBE         -2.9340    -1.9580    -0.4800 s6         1 DSZ       1.573100
     30 OD1         -4.8820     4.5280    -0.1120 o          1 DSZ      -0.836300
     31 OD2         -3.8460     3.7110     1.6850 o          1 DSZ      -0.836300
     32 HN          -0.4860     2.7680    -0.1710 hn         1 DSZ       0.345300
     33 HNA         -1.4110     3.0060    -1.4900 hn         1 DSZ       0.345300
     34 HN6          3.6600     5.0630    -0.4880 hn         1 DSZ       0.454300
     35 HN6A         2.1840     4.5200     0.2180 hn         1 DSZ       0.454300
     36 HA          -2.2560     1.8970     1.0700 h1         1 DSZ       0.089700
     37 HB          -3.9020     2.6030    -1.3870 hc         1 DSZ       0.028200
     38 HBA         -4.4950     1.6250    -0.0590 hc         1 DSZ       0.028200
     39 H1           3.2960    -1.8770    -0.3110 h2         1 DSZ       0.121700
     40 H2           1.4780    -1.7750     2.1280 h1         1 DSZ       0.053700
     41 HO2          3.3330    -2.5070     3.0670 ho         1 DSZ       0.414000
     42 H3           1.0690    -4.1370     1.9460 h1         1 DSZ       0.052700
     43 HO3          3.3470    -4.5150     1.1910 ho         1 DSZ       0.421000
     44 H4           0.6130    -4.0610    -0.7700 h1         1 DSZ       0.110700
     45 H5          -1.1620    -3.8470     0.9110 h1         1 DSZ       0.049200
     46 H5'A        -0.7170    -2.1590     1.2290 h1         1 DSZ       0.049200
     47 HNAT        -3.0840    -0.2390     1.0140 hn         1 DSZ       0.353500
     48 H6           6.0070     1.4020    -1.5730 h5         1 DSZ       0.039100
     49 H8           0.3300     0.1110     1.0800 h5         1 DSZ       0.064800
@<TRIPOS>BOND
     1     1     3 2   
     2     1    14 1   
     3     1    26 1   
     4     2    14 1   
     5     2    32 1   
     6     2    33 1   
     7     4     5 ar  
     8     4     9 ar  
     9     5     6 ar  
    10     5    48 1   
    11     6     7 ar  
    12     7     8 ar  
    13     7    13 1   
    14     8     9 ar  
    15     8    11 1   
    16     9    10 1   
    17    10    34 1   
    18    10    35 1   
    19    11    12 2   
    20    12    13 1   
    21    12    49 1   
    22    13    17 1   
    23    14    15 1   
    24    14    36 1   
    25    15    16 1   
    26    15    37 1   
    27    15    38 1   
    28    16    30 1   
    29    16    31 1   
    30    17    18 1   
    31    17    23 1   
    32    17    39 1   
    33    18    19 1   
    34    18    20 1   
    35    18    40 1   
    36    19    41 1   
    37    20    21 1   
    38    20    22 1   
    39    20    42 1   
    40    21    43 1   
    41    22    23 1   
    42    22    24 1   
    43    22    44 1   
    44    24    25 1   
    45    24    45 1   
    46    24    46 1   
    47    25    29 1   
    48    26    29 1   
    49    26    47 1   
    50    27    29 2   
    51    28    29 2   
@<TRIPOS>SUBSTRUCTURE
     1 DSZ         1 TEMP              0 ****  ****    0 ROOT
