@<TRIPOS>MOLECULE
DT0
  101   102     1     0     0
SMALL
bcc


@<TRIPOS>ATOM
      1 C10         -5.1440     6.4200   -17.8790 c          1 DT0       0.640100
      2 N12         -3.9140     5.0930   -19.5990 nu         1 DT0      -0.840200
      3 C13         -2.5830     5.3830   -19.3960 c2         1 DT0       0.822100
      4 C17         -7.3540     4.5540   -18.0950 c3         1 DT0      -0.083400
      5 C21         -9.2300     4.9620   -15.4000 c          1 DT0       0.656100
      6 C24         -8.8660     5.8010   -13.0250 c3         1 DT0      -0.080400
      7 C26         -8.7020     4.3250   -10.9280 c3         1 DT0      -0.086400
      8 C01          0.4350     7.0320   -16.9400 ca         1 DT0      -0.129000
      9 C02         -0.7190     7.8010   -17.0400 ca         1 DT0      -0.111300
     10 C03         -0.7710     8.9610   -18.0010 c3         1 DT0       0.140300
     11 C05         -2.7540     9.9190   -19.0910 c          1 DT0       0.670100
     12 C06         -3.8500     9.6570   -20.1010 c3         1 DT0      -0.162400
     13 C07         -5.2380     9.7740   -19.4700 c3         1 DT0      -0.086400
     14 C08         -5.4770     8.8180   -18.3100 c3         1 DT0       0.098000
     15 C11         -4.9020     5.0560   -18.5400 c3         1 DT0       0.136500
     16 C16         -6.2060     4.4710   -19.0910 c3         1 DT0      -0.074400
     17 C18         -8.5260     3.6480   -18.4480 c3         1 DT0      -0.098400
     18 C19         -9.7450     3.8990   -17.5630 c3         1 DT0       0.098000
     19 C23         -8.6360     4.6670   -14.0190 c3         1 DT0       0.027700
     20 C25         -8.2100     5.5640   -11.6680 c3         1 DT0      -0.071400
     21 C27         -7.9660     4.1040    -9.6160 c3         1 DT0       0.152800
     22 C30         -6.6740     3.1840   -13.9370 c          1 DT0       0.660100
     23 C32         -5.1540     3.1400   -13.7900 c3         1 DT0       0.022700
     24 C33         -4.7930     2.3970   -12.4970 c3         1 DT0      -0.089400
     25 C34         -3.2910     2.2960   -12.2660 c3         1 DT0      -0.075400
     26 C35         -2.9550     1.4380   -11.0540 c3         1 DT0      -0.080400
     27 C36         -1.4650     1.4140   -10.7490 c3         1 DT0       0.149800
     28 C39         -3.5600     4.7740   -14.7130 c          1 DT0       0.691100
     29 C41         -2.9250     6.1250   -14.4370 c3         1 DT0      -0.115100
     30 C42         -1.7550     6.4380   -15.3210 ca         1 DT0      -0.076300
     31 C43         -1.8080     7.4890   -16.2270 ca         1 DT0      -0.102000
     32 C44         -0.5850     5.6860   -15.2280 ca         1 DT0      -0.112000
     33 C45          0.5030     5.9800   -16.0320 ca         1 DT0      -0.135000
     34 N04         -1.9030     8.9000   -18.8950 ns         1 DT0      -0.577900
     35 N09         -5.2610     7.4510   -18.7270 ns         1 DT0      -0.566900
     36 N14         -1.9960     4.8080   -18.3140 nv         1 DT0      -0.964800
     37 N15         -1.9730     6.0970   -20.2840 n2         1 DT0      -0.965100
     38 N20         -9.4290     3.8650   -16.1500 ns         1 DT0      -0.565900
     39 N28         -8.4860     2.9390    -8.9160 n8         1 DT0      -0.883800
     40 N29         -7.2190     4.3910   -14.1560 ns         1 DT0      -0.567900
     41 N37         -1.1810     0.5520    -9.6100 n8         1 DT0      -0.882800
     42 N38         -4.5380     4.4450   -13.8390 ns         1 DT0      -0.575900
     43 O22         -9.4760     6.0990   -15.7700 o          1 DT0      -0.600100
     44 O31         -7.3300     2.1590   -13.8200 o          1 DT0      -0.610100
     45 O40         -3.2150     4.0340   -15.6200 o          1 DT0      -0.618100
     46 O46         -5.2450     6.5400   -16.6660 o          1 DT0      -0.627100
     47 O47         -2.6820    10.9910   -18.5010 o          1 DT0      -0.619100
     48 H1          -4.2390     5.4680   -20.4780 hn         1 DT0       0.421800
     49 H2          -6.9880     4.2900   -17.1000 hc         1 DT0       0.056700
     50 H3          -7.7040     5.5880   -18.0260 hc         1 DT0       0.056700
     51 H4          -8.4900     6.7370   -13.4470 hc         1 DT0       0.063200
     52 H5          -9.9440     5.9330   -12.8990 hc         1 DT0       0.063200
     53 H6          -9.7760     4.4250   -10.7320 hc         1 DT0       0.053700
     54 H7          -8.5840     3.4290   -11.5440 hc         1 DT0       0.053700
     55 H8           1.2860     7.2560   -17.5720 ha         1 DT0       0.135000
     56 H9           0.1590     8.9930   -18.5750 h1         1 DT0       0.064200
     57 H10         -0.8300     9.8990   -17.4480 h1         1 DT0       0.064200
     58 H11         -3.7200     8.6870   -20.5860 hc         1 DT0       0.065200
     59 H12         -3.7610    10.4060   -20.8920 hc         1 DT0       0.065200
     60 H13         -5.3940    10.7910   -19.1090 hc         1 DT0       0.059200
     61 H14         -5.9910     9.6050   -20.2440 hc         1 DT0       0.059200
     62 H15         -4.8050     9.0490   -17.4800 h1         1 DT0       0.057200
     63 H16         -6.4950     8.9530   -17.9350 h1         1 DT0       0.057200
     64 H17         -4.5650     4.3960   -17.7400 h1         1 DT0       0.104700
     65 H18         -6.4850     4.9800   -20.0180 hc         1 DT0       0.050700
     66 H19         -6.0070     3.4290   -19.3570 hc         1 DT0       0.050700
     67 H20         -8.8310     3.8030   -19.4880 hc         1 DT0       0.044700
     68 H21         -8.2150     2.6020   -18.3690 hc         1 DT0       0.044700
     69 H22        -10.1700     4.8760   -17.7860 h1         1 DT0       0.059700
     70 H24         -9.1020     3.7540   -13.6450 h1         1 DT0       0.088700
     71 H25         -7.1240     5.5090   -11.7940 hc         1 DT0       0.034200
     72 H26         -8.3880     6.4460   -11.0460 hc         1 DT0       0.034200
     73 H27         -6.9070     3.9270    -9.8300 h1         1 DT0       0.021200
     74 H28         -8.0050     5.0290    -9.0200 h1         1 DT0       0.021200
     75 H29         -4.7650     2.5710   -14.6380 h1         1 DT0       0.109700
     76 H30         -5.2650     2.8950   -11.6420 hc         1 DT0       0.062700
     77 H31         -5.2240     1.3970   -12.5500 hc         1 DT0       0.062700
     78 H32         -2.8100     1.8790   -13.1570 hc         1 DT0       0.039200
     79 H33         -2.8670     3.2950   -12.1280 hc         1 DT0       0.039200
     80 H34         -3.4940     1.8180   -10.1780 hc         1 DT0       0.049200
     81 H35         -3.3060     0.4130   -11.2130 hc         1 DT0       0.049200
     82 H36         -0.9280     1.0230   -11.6180 h1         1 DT0       0.025700
     83 H37         -1.1170     2.4490   -10.6140 h1         1 DT0       0.025700
     84 H38         -2.6150     6.1450   -13.3870 hc         1 DT0       0.076200
     85 H39         -3.6970     6.8880   -14.5410 hc         1 DT0       0.076200
     86 H40         -2.7170     8.0740   -16.3010 ha         1 DT0       0.147000
     87 H41         -0.5220     4.8670   -14.5210 ha         1 DT0       0.135000
     88 H42          1.4060     5.3880   -15.9600 ha         1 DT0       0.137000
     89 H43         -2.0270     8.0450   -19.4330 hn         1 DT0       0.341500
     90 H44         -5.2300     7.2700   -19.7170 hn         1 DT0       0.314500
     91 H45         -2.5420     4.4800   -17.5310 hn         1 DT0       0.430800
     92 H46         -1.1150     5.2050   -18.0290 hn         1 DT0       0.430800
     93 H47         -0.9730     6.1000   -20.1100 hn         1 DT0       0.382400
     94 H48         -9.1670     2.9720   -15.7610 hn         1 DT0       0.324500
     95 H49         -7.9410     2.7740    -8.0800 hn         1 DT0       0.337300
     96 H50         -9.4250     3.1360    -8.5930 hn         1 DT0       0.337300
     97 H52         -6.6000     5.1710   -14.3250 hn         1 DT0       0.339500
     98 H53         -0.1860     0.5560    -9.4240 hn         1 DT0       0.336800
     99 H54         -1.6120     0.9440    -8.7820 hn         1 DT0       0.336800
    100 H56         -4.6510     5.0430   -13.0330 hn         1 DT0       0.310500
    101 H23        -10.5180     3.1570   -17.7670 h1         1 DT0       0.059700
@<TRIPOS>BOND
     1     1    15 1   
     2     1    35 1   
     3     1    46 2   
     4     2     3 1   
     5     2    15 1   
     6     2    48 1   
     7     3    36 1   
     8     3    37 2   
     9     4    16 1   
    10     4    17 1   
    11     4    49 1   
    12     4    50 1   
    13     5    19 1   
    14     5    38 1   
    15     5    43 2   
    16     6    19 1   
    17     6    20 1   
    18     6    51 1   
    19     6    52 1   
    20     7    20 1   
    21     7    21 1   
    22     7    53 1   
    23     7    54 1   
    24     8     9 ar  
    25     8    33 ar  
    26     8    55 1   
    27     9    10 1   
    28     9    31 ar  
    29    10    34 1   
    30    10    56 1   
    31    10    57 1   
    32    11    12 1   
    33    11    34 1   
    34    11    47 2   
    35    12    13 1   
    36    12    58 1   
    37    12    59 1   
    38    13    14 1   
    39    13    60 1   
    40    13    61 1   
    41    14    35 1   
    42    14    62 1   
    43    14    63 1   
    44    15    16 1   
    45    15    64 1   
    46    16    65 1   
    47    16    66 1   
    48    17    18 1   
    49    17    67 1   
    50    17    68 1   
    51    18    38 1   
    52    18    69 1   
    53    18   101 1   
    54    19    40 1   
    55    19    70 1   
    56    20    71 1   
    57    20    72 1   
    58    21    39 1   
    59    21    73 1   
    60    21    74 1   
    61    22    23 1   
    62    22    40 1   
    63    22    44 2   
    64    23    24 1   
    65    23    42 1   
    66    23    75 1   
    67    24    25 1   
    68    24    76 1   
    69    24    77 1   
    70    25    26 1   
    71    25    78 1   
    72    25    79 1   
    73    26    27 1   
    74    26    80 1   
    75    26    81 1   
    76    27    41 1   
    77    27    82 1   
    78    27    83 1   
    79    28    29 1   
    80    28    42 1   
    81    28    45 2   
    82    29    30 1   
    83    29    84 1   
    84    29    85 1   
    85    30    31 ar  
    86    30    32 ar  
    87    31    86 1   
    88    32    33 ar  
    89    32    87 1   
    90    33    88 1   
    91    34    89 1   
    92    35    90 1   
    93    36    91 1   
    94    36    92 1   
    95    37    93 1   
    96    38    94 1   
    97    39    95 1   
    98    39    96 1   
    99    40    97 1   
   100    41    98 1   
   101    41    99 1   
   102    42   100 1   
@<TRIPOS>SUBSTRUCTURE
     1 DT0         1 TEMP              0 ****  ****    0 ROOT
