@<TRIPOS>MOLECULE
DT0
  101   102     1     0     0
SMALL
No Charge or Current Charge


@<TRIPOS>ATOM
      1 C10         -5.1010     7.6120   -18.9590 c          1 DT0       0.573100
      2 N12         -3.8520     5.4190   -19.5200 nu         1 DT0      -0.895400
      3 C13         -2.5980     5.6180   -19.2270 c2         1 DT0       0.822100
      4 C17         -7.3900     5.5790   -17.9720 c3         1 DT0      -0.083400
      5 C21         -9.8420     4.3670   -14.4890 c          1 DT0       0.589100
      6 C24         -9.3460     5.0240   -12.0420 c3         1 DT0      -0.080400
      7 C26         -8.9390     3.4090   -10.0410 c3         1 DT0      -0.086400
      8 C01         -0.2140     6.6390   -16.7510 ca         1 DT0      -0.111000
      9 C02         -1.1930     7.6290   -16.9520 ca         1 DT0      -0.111300
     10 C03         -0.8770     8.8660   -17.7800 c3         1 DT0       0.140300
     11 C05         -1.5430     9.8000   -20.0090 c          1 DT0       0.603100
     12 C06         -2.0890     9.4320   -21.3930 c3         1 DT0      -0.162400
     13 C07         -3.5560     9.8960   -21.6010 c3         1 DT0      -0.086400
     14 C08         -4.5250     9.5550   -20.4460 c3         1 DT0       0.098000
     15 C11         -4.9570     6.0610   -18.7460 c3         1 DT0       0.136500
     16 C16         -6.2730     5.2850   -19.0030 c3         1 DT0      -0.074400
     17 C18         -8.5900     4.6090   -18.0820 c3         1 DT0      -0.098400
     18 C19         -9.6380     4.7870   -16.9650 c3         1 DT0       0.098000
     19 C23         -9.0620     4.0110   -13.1840 c3         1 DT0       0.027700
     20 C25         -8.5940     4.7590   -10.7120 c3         1 DT0      -0.071400
     21 C27         -8.2150     3.2120    -8.6940 c3         1 DT0       0.152800
     22 C30         -6.8770     2.7130   -13.3350 c          1 DT0       0.593100
     23 C32         -5.3250     2.8520   -13.3900 c3         1 DT0       0.022700
     24 C33         -4.6520     2.2930   -12.1110 c3         1 DT0      -0.089400
     25 C34         -3.1050     2.2820   -12.1710 c3         1 DT0      -0.075400
     26 C35         -2.4560     1.6670   -10.9110 c3         1 DT0      -0.080400
     27 C36         -0.9150     1.6590   -10.9760 c3         1 DT0       0.149800
     28 C39         -4.6560     4.7810   -14.8850 c          1 DT0       0.624100
     29 C41         -4.1310     6.2220   -14.9030 c3         1 DT0      -0.115100
     30 C42         -2.7540     6.3530   -15.5570 ca         1 DT0      -0.076300
     31 C43         -2.4610     7.4780   -16.3550 ca         1 DT0      -0.084000
     32 C44         -1.7560     5.3780   -15.3500 ca         1 DT0      -0.094000
     33 C45         -0.4940     5.5190   -15.9510 ca         1 DT0      -0.117000
     34 N04         -1.3490     8.7420   -19.1560 ns         1 DT0      -0.510900
     35 N09         -4.5240     8.1320   -20.1000 ns         1 DT0      -0.499900
     36 N14         -2.3290     4.5450   -18.5830 nv         1 DT0      -1.075200
     37 N15         -1.9090     5.9580   -20.1850 n2         1 DT0      -0.965100
     38 N20         -9.0960     4.4510   -15.6460 ns         1 DT0      -0.498900
     39 N28         -8.5740     1.9280    -8.0680 n8         1 DT0      -0.994200
     40 N29         -7.5980     3.8900   -13.4110 ns         1 DT0      -0.500900
     41 N37         -0.3250     1.0630    -9.7640 n8         1 DT0      -0.993200
     42 N38         -4.8900     4.2510   -13.6350 ns         1 DT0      -0.508900
     43 O22        -11.0470     4.5850   -14.4950 o          1 DT0      -0.600100
     44 O31         -7.4340     1.6280   -13.2380 o          1 DT0      -0.610100
     45 O40         -4.8940     4.1480   -15.9010 o          1 DT0      -0.618100
     46 O46         -5.6550     8.3400   -18.1450 o          1 DT0      -0.627100
     47 O47         -1.2780    10.9510   -19.6910 o          1 DT0      -0.619100
     48 H1          -3.9470     5.4060   -20.5270 hn         1 DT0       0.477000
     49 H2          -6.9660     5.5180   -16.9630 hc         1 DT0       0.056700
     50 H3          -7.7500     6.6080   -18.1000 hc         1 DT0       0.056700
     51 H4          -9.0850     6.0310   -12.3930 hc         1 DT0       0.063200
     52 H5         -10.4250     5.0410   -11.8390 hc         1 DT0       0.063200
     53 H6         -10.0230     3.3530    -9.8820 hc         1 DT0       0.053700
     54 H7          -8.6670     2.5850   -10.7110 hc         1 DT0       0.053700
     55 H8           0.7700     6.7430   -17.2050 ha         1 DT0       0.117000
     56 H9           0.2080     9.0400   -17.7930 h1         1 DT0       0.064200
     57 H10         -1.3500     9.7420   -17.3150 h1         1 DT0       0.064200
     58 H11         -2.0410     8.3480   -21.5380 hc         1 DT0       0.065200
     59 H12         -1.4670     9.9180   -22.1540 hc         1 DT0       0.065200
     60 H13         -3.5680    10.9830   -21.7440 hc         1 DT0       0.059200
     61 H14         -3.9390     9.4580   -22.5320 hc         1 DT0       0.059200
     62 H15         -4.2470    10.1350   -19.5560 h1         1 DT0       0.057200
     63 H16         -5.5450     9.8470   -20.7290 h1         1 DT0       0.057200
     64 H17         -4.7260     5.9530   -17.6800 h1         1 DT0       0.104700
     65 H18         -6.6370     5.4960   -20.0160 hc         1 DT0       0.050700
     66 H19         -6.0520     4.2100   -18.9640 hc         1 DT0       0.050700
     67 H20         -9.0790     4.7560   -19.0530 hc         1 DT0       0.044700
     68 H21         -8.2300     3.5720   -18.0650 hc         1 DT0       0.044700
     69 H22         -9.9960     5.8250   -16.9520 h1         1 DT0       0.059700
     70 H24         -9.4510     3.0320   -12.8770 h1         1 DT0       0.088700
     71 H25         -7.5110     4.8150   -10.8790 hc         1 DT0       0.034200
     72 H26         -8.8370     5.5700   -10.0130 hc         1 DT0       0.034200
     73 H27         -7.1280     3.2330    -8.8520 h1         1 DT0       0.021200
     74 H28         -8.4830     4.0250    -8.0050 h1         1 DT0       0.021200
     75 H29         -5.0060     2.2340   -14.2390 h1         1 DT0       0.109700
     76 H30         -4.9810     2.8800   -11.2430 hc         1 DT0       0.062700
     77 H31         -5.0040     1.2670   -11.9460 hc         1 DT0       0.062700
     78 H32         -2.7840     1.7150   -13.0540 hc         1 DT0       0.039200
     79 H33         -2.7330     3.3060   -12.2960 hc         1 DT0       0.039200
     80 H34         -2.7790     2.2330   -10.0280 hc         1 DT0       0.049200
     81 H35         -2.8170     0.6390   -10.7860 hc         1 DT0       0.049200
     82 H36         -0.5840     1.0790   -11.8490 h1         1 DT0       0.025700
     83 H37         -0.5420     2.6880   -11.0800 h1         1 DT0       0.025700
     84 H38         -4.0870     6.6110   -13.8800 hc         1 DT0       0.076200
     85 H39         -4.8610     6.8240   -15.4560 hc         1 DT0       0.076200
     86 H40         -3.2160     8.2470   -16.5030 ha         1 DT0       0.129000
     87 H41         -1.9500     4.5120   -14.7210 ha         1 DT0       0.117000
     88 H42          0.2720     4.7630   -15.7880 ha         1 DT0       0.119000
     89 H43         -1.5560     7.8150   -19.5230 hn         1 DT0       0.341500
     90 H44         -4.0190     7.4840   -20.6910 hn         1 DT0       0.314500
     91 H45         -3.2230     4.0890   -18.4960 hn         1 DT0       0.486000
     92 H46         -1.9420     4.7720   -17.6790 hn         1 DT0       0.486000
     93 H47         -1.0210     5.4640   -20.0510 hn         1 DT0       0.382400
     94 H48         -8.1110     4.2300   -15.5640 hn         1 DT0       0.324500
     95 H49         -8.1190     1.8650    -7.1500 hn         1 DT0       0.392500
     96 H50         -9.5750     1.9380    -7.8390 hn         1 DT0       0.392500
     97 H52         -7.0450     4.7380   -13.4650 hn         1 DT0       0.339500
     98 H53          0.6990     1.1340    -9.8210 hn         1 DT0       0.392000
     99 H54         -0.5610     1.6500    -8.9550 hn         1 DT0       0.392000
    100 H56         -4.6450     4.8310   -12.8390 hn         1 DT0       0.310500
    101 H23        -10.4960     4.1320   -17.1690 h1         1 DT0       0.059700
@<TRIPOS>BOND
     1     1    15 1   
     2     1    35 1   
     3     1    46 2   
     4     2     3 1   
     5     2    15 1   
     6     2    48 1   
     7     3    36 1   
     8     3    37 2   
     9     4    16 1   
    10     4    17 1   
    11     4    49 1   
    12     4    50 1   
    13     5    19 1   
    14     5    38 1   
    15     5    43 2   
    16     6    19 1   
    17     6    20 1   
    18     6    51 1   
    19     6    52 1   
    20     7    20 1   
    21     7    21 1   
    22     7    53 1   
    23     7    54 1   
    24     8     9 ar  
    25     8    33 ar  
    26     8    55 1   
    27     9    10 1   
    28     9    31 ar  
    29    10    34 1   
    30    10    56 1   
    31    10    57 1   
    32    11    12 1   
    33    11    34 1   
    34    11    47 2   
    35    12    13 1   
    36    12    58 1   
    37    12    59 1   
    38    13    14 1   
    39    13    60 1   
    40    13    61 1   
    41    14    35 1   
    42    14    62 1   
    43    14    63 1   
    44    15    16 1   
    45    15    64 1   
    46    16    65 1   
    47    16    66 1   
    48    17    18 1   
    49    17    67 1   
    50    17    68 1   
    51    18    38 1   
    52    18    69 1   
    53    18   101 1   
    54    19    40 1   
    55    19    70 1   
    56    20    71 1   
    57    20    72 1   
    58    21    39 1   
    59    21    73 1   
    60    21    74 1   
    61    22    23 1   
    62    22    40 1   
    63    22    44 2   
    64    23    24 1   
    65    23    42 1   
    66    23    75 1   
    67    24    25 1   
    68    24    76 1   
    69    24    77 1   
    70    25    26 1   
    71    25    78 1   
    72    25    79 1   
    73    26    27 1   
    74    26    80 1   
    75    26    81 1   
    76    27    41 1   
    77    27    82 1   
    78    27    83 1   
    79    28    29 1   
    80    28    42 1   
    81    28    45 2   
    82    29    30 1   
    83    29    84 1   
    84    29    85 1   
    85    30    31 ar  
    86    30    32 ar  
    87    31    86 1   
    88    32    33 ar  
    89    32    87 1   
    90    33    88 1   
    91    34    89 1   
    92    35    90 1   
    93    36    91 1   
    94    36    92 1   
    95    37    93 1   
    96    38    94 1   
    97    39    95 1   
    98    39    96 1   
    99    40    97 1   
   100    41    98 1   
   101    41    99 1   
   102    42   100 1   
@<TRIPOS>SUBSTRUCTURE
     1 DT0         1 TEMP              0 ****  ****    0 ROOT
