@<TRIPOS>MOLECULE
DT1
   50    53     1     0     0
SMALL
No Charge or Current Charge


@<TRIPOS>ATOM
      1 O3           6.8020     1.6860     1.5540 o          1 DT1      -0.530500
      2 S1           6.7430     0.9930     0.2670 sy         1 DT1       1.146600
      3 O2           7.5150     1.4110    -0.9010 o          1 DT1      -0.530500
      4 N6           7.2690    -0.5230     0.5680 n8         1 DT1      -0.994100
      5 C16          5.0430     0.6800    -0.2030 ca         1 DT1      -0.347500
      6 C15          4.0450     0.5960     0.7880 ca         1 DT1       0.014000
      7 C17          4.6970     0.5240    -1.5610 ca         1 DT1       0.014000
      8 C18          3.3590     0.2810    -1.9170 ca         1 DT1      -0.159500
      9 C14          2.7120     0.3530     0.4190 ca         1 DT1      -0.159500
     10 C13          2.3660     0.1820    -0.9310 ca         1 DT1       0.363000
     11 N5           1.0430    -0.0350    -1.3170 nu         1 DT1      -0.975000
     12 C9          -0.0480    -0.5840    -0.6680 cc         1 DT1       0.399000
     13 N2           0.0350    -1.6780     0.2170 na         1 DT1       0.029900
     14 C10         -1.0930    -2.1590     0.8180 cc         1 DT1       0.467500
     15 N1          -2.3660    -1.6900     0.6980 nc         1 DT1      -0.758000
     16 N4          -0.7300    -3.1850     1.5480 nd         1 DT1      -0.391300
     17 C11          0.6390    -3.3020     1.3320 cd         1 DT1       0.544200
     18 N3           1.1570    -2.3970     0.5000 nc         1 DT1      -0.596100
     19 C8          -1.3230    -0.0950    -0.8280 cd         1 DT1      -0.307000
     20 C7          -2.4320    -0.6620    -0.1320 cd         1 DT1       0.667300
     21 C20         -4.8290    -0.5360     0.3310 c3         1 DT1       0.171600
     22 O1          -3.6490    -0.0810    -0.3620 os         1 DT1      -0.452300
     23 C1          -6.0470     0.3230    -0.1180 c6         1 DT1      -0.068700
     24 C2          -7.3690    -0.2280     0.4860 c6         1 DT1      -0.070900
     25 C3          -8.5930     0.6110     0.0400 c6         1 DT1      -0.073400
     26 C4          -8.4090     2.1050     0.4000 c6         1 DT1      -0.076400
     27 C5          -7.0970     2.6650    -0.2000 c6         1 DT1      -0.073400
     28 C6          -5.8720     1.8270     0.2450 c6         1 DT1      -0.070900
     29 H6N1         6.5750    -1.0860     0.0830 hn         1 DT1       0.475500
     30 H6N2         8.0850    -0.5660    -0.0380 hn         1 DT1       0.475500
     31 H15          4.2940     0.7210     1.8420 ha         1 DT1       0.139000
     32 H17          5.4520     0.5920    -2.3430 ha         1 DT1       0.139000
     33 H18          3.0980     0.1620    -2.9640 ha         1 DT1       0.126500
     34 H14          1.9460     0.3020     1.1860 ha         1 DT1       0.126500
     35 H5           0.8190     0.3150    -2.2480 hn         1 DT1       0.511000
     36 H11          1.2190    -4.0830     1.8100 h5         1 DT1       0.072800
     37 H8          -1.5000     0.7480    -1.4810 ha         1 DT1       0.154000
     38 H201        -5.0320    -1.5890     0.0960 h1         1 DT1       0.059700
     39 H202        -4.7070    -0.4430     1.4190 h1         1 DT1       0.059700
     40 H1          -6.1020     0.2280    -1.2120 hc         1 DT1       0.059700
     41 H2C1        -7.5140    -1.2740     0.1830 hc         1 DT1       0.043700
     42 H2C2        -7.3070    -0.2290     1.5840 hc         1 DT1       0.043700
     43 H3C1        -8.7370     0.5070    -1.0450 hc         1 DT1       0.040700
     44 H3C2        -9.5040     0.2230     0.5150 hc         1 DT1       0.040700
     45 H4C1        -9.2650     2.6860     0.0320 hc         1 DT1       0.040200
     46 H4C2        -8.3970     2.2240     1.4930 hc         1 DT1       0.040200
     47 H5C1        -7.1630     2.6690    -1.2970 hc         1 DT1       0.040700
     48 H5C2        -6.9630     3.7110     0.1070 hc         1 DT1       0.040700
     49 H6C1        -5.7270     1.9350     1.3290 hc         1 DT1       0.043700
     50 H6C2        -4.9670     2.2300    -0.2300 hc         1 DT1       0.043700
@<TRIPOS>BOND
     1     1     2 2   
     2     2     3 2   
     3     2     4 1   
     4     2     5 1   
     5     4    29 1   
     6     4    30 1   
     7     5     6 ar  
     8     5     7 ar  
     9     6     9 ar  
    10     6    31 1   
    11     7     8 ar  
    12     7    32 1   
    13     8    10 ar  
    14     8    33 1   
    15     9    10 ar  
    16     9    34 1   
    17    10    11 1   
    18    11    12 1   
    19    11    35 1   
    20    12    13 1   
    21    12    19 2   
    22    13    14 1   
    23    13    18 1   
    24    14    15 1   
    25    14    16 2   
    26    15    20 2   
    27    16    17 1   
    28    17    18 2   
    29    17    36 1   
    30    19    20 1   
    31    19    37 1   
    32    20    22 1   
    33    21    22 1   
    34    21    23 1   
    35    21    38 1   
    36    21    39 1   
    37    23    24 1   
    38    23    28 1   
    39    23    40 1   
    40    24    25 1   
    41    24    41 1   
    42    24    42 1   
    43    25    26 1   
    44    25    43 1   
    45    25    44 1   
    46    26    27 1   
    47    26    45 1   
    48    26    46 1   
    49    27    28 1   
    50    27    47 1   
    51    27    48 1   
    52    28    49 1   
    53    28    50 1   
@<TRIPOS>SUBSTRUCTURE
     1 DT1         1 TEMP              0 ****  ****    0 ROOT
