@<TRIPOS>MOLECULE
DT1
   50    53     1     0     0
SMALL
bcc


@<TRIPOS>ATOM
      1 O3           6.5200     1.4680     1.7050 o          1 DT1      -0.601300
      2 S1           6.5610     0.8860     0.3740 sy         1 DT1       1.288200
      3 O2           7.2710     1.5620    -0.6990 o          1 DT1      -0.601300
      4 N6           7.2730    -0.5880     0.5390 n8         1 DT1      -0.883700
      5 C16          4.8970     0.6230    -0.1620 ca         1 DT1      -0.347500
      6 C15          3.8720     0.5330     0.7710 ca         1 DT1      -0.004000
      7 C17          4.6280     0.4960    -1.5190 ca         1 DT1      -0.004000
      8 C18          3.3340     0.2520    -1.9370 ca         1 DT1      -0.177500
      9 C14          2.5750     0.3070     0.3500 ca         1 DT1      -0.177500
     10 C13          2.2990     0.1470    -1.0070 ca         1 DT1       0.224600
     11 N5           1.0090    -0.0610    -1.4920 nu         1 DT1      -0.643000
     12 C9          -0.0780    -0.4710    -0.7850 cc         1 DT1       0.311300
     13 N2           0.0280    -1.5220     0.0770 na         1 DT1      -0.020800
     14 C10         -1.0560    -1.9990     0.7760 cc         1 DT1       0.467500
     15 N1          -2.2770    -1.4870     0.6490 nc         1 DT1      -0.758000
     16 N4          -0.6630    -3.0260     1.5060 nd         1 DT1      -0.391300
     17 C11          0.6410    -3.1390     1.1990 cd         1 DT1       0.544200
     18 N3           1.1150    -2.2700     0.3370 nc         1 DT1      -0.596100
     19 C8          -1.3290     0.0610    -0.9340 cd         1 DT1      -0.390300
     20 C7          -2.4030    -0.4970    -0.1980 cd         1 DT1       0.732600
     21 C20         -4.7170    -0.4340     0.3190 c3         1 DT1       0.148400
     22 O1          -3.5810     0.0610    -0.3990 os         1 DT1      -0.429100
     23 C1          -5.9380     0.3450    -0.1250 c6         1 DT1      -0.068700
     24 C2          -7.1800    -0.2510     0.5410 c6         1 DT1      -0.070900
     25 C3          -8.4480     0.4900     0.1310 c6         1 DT1      -0.073400
     26 C4          -8.3410     1.9820     0.4320 c6         1 DT1      -0.076400
     27 C5          -7.1010     2.5840    -0.2210 c6         1 DT1      -0.073400
     28 C6          -5.8330     1.8390     0.1860 c6         1 DT1      -0.070900
     29 H6N1         6.8560    -1.1650     1.2610 hn         1 DT1       0.420300
     30 H6N2         7.3570    -1.1000    -0.3320 hn         1 DT1       0.420300
     31 H15          4.0680     0.6600     1.8270 ha         1 DT1       0.157000
     32 H17          5.4140     0.5770    -2.2570 ha         1 DT1       0.157000
     33 H18          3.1240     0.1410    -2.9930 ha         1 DT1       0.144500
     34 H14          1.7850     0.2830     1.0880 ha         1 DT1       0.144500
     35 H5           0.7860     0.4140    -2.3540 hn         1 DT1       0.455800
     36 H11          1.2780    -3.9010     1.6230 h5         1 DT1       0.072800
     37 H8          -1.4850     0.9080    -1.5870 ha         1 DT1       0.172000
     38 H201        -4.8440    -1.5000     0.1140 h1         1 DT1       0.059700
     39 H202        -4.5530    -0.3190     1.3950 h1         1 DT1       0.059700
     40 H1          -6.0480     0.2210    -1.2100 hc         1 DT1       0.059700
     41 H2C1        -7.2660    -1.3120     0.2930 hc         1 DT1       0.043700
     42 H2C2        -7.0670    -0.1930     1.6310 hc         1 DT1       0.043700
     43 H3C1        -8.6180     0.3480    -0.9420 hc         1 DT1       0.040700
     44 H3C2        -9.3120     0.0600     0.6420 hc         1 DT1       0.040700
     45 H4C1        -9.2390     2.5020     0.0930 hc         1 DT1       0.040200
     46 H4C2        -8.2870     2.1270     1.5170 hc         1 DT1       0.040200
     47 H5C1        -7.2100     2.5390    -1.3100 hc         1 DT1       0.040700
     48 H5C2        -7.0110     3.6420     0.0370 hc         1 DT1       0.040700
     49 H6C1        -5.6640     1.9660     1.2620 hc         1 DT1       0.043700
     50 H6C2        -4.9700     2.2770    -0.3190 hc         1 DT1       0.043700
@<TRIPOS>BOND
     1     1     2 2   
     2     2     3 2   
     3     2     4 1   
     4     2     5 1   
     5     4    29 1   
     6     4    30 1   
     7     5     6 ar  
     8     5     7 ar  
     9     6     9 ar  
    10     6    31 1   
    11     7     8 ar  
    12     7    32 1   
    13     8    10 ar  
    14     8    33 1   
    15     9    10 ar  
    16     9    34 1   
    17    10    11 1   
    18    11    12 1   
    19    11    35 1   
    20    12    13 1   
    21    12    19 2   
    22    13    14 1   
    23    13    18 1   
    24    14    15 1   
    25    14    16 2   
    26    15    20 2   
    27    16    17 1   
    28    17    18 2   
    29    17    36 1   
    30    19    20 1   
    31    19    37 1   
    32    20    22 1   
    33    21    22 1   
    34    21    23 1   
    35    21    38 1   
    36    21    39 1   
    37    23    24 1   
    38    23    28 1   
    39    23    40 1   
    40    24    25 1   
    41    24    41 1   
    42    24    42 1   
    43    25    26 1   
    44    25    43 1   
    45    25    44 1   
    46    26    27 1   
    47    26    45 1   
    48    26    46 1   
    49    27    28 1   
    50    27    47 1   
    51    27    48 1   
    52    28    49 1   
    53    28    50 1   
@<TRIPOS>SUBSTRUCTURE
     1 DT1         1 TEMP              0 ****  ****    0 ROOT
