@<TRIPOS>MOLECULE
DT2
   48    51     1     0     0
SMALL
No Charge or Current Charge


@<TRIPOS>ATOM
      1 O2           6.7160    -0.7230    -1.5140 o          1 DT2      -0.547000
      2 S1           6.4970    -0.3150    -0.1280 sy         1 DT2       1.130600
      3 O3           7.3000    -0.8350     0.9760 o          1 DT2      -0.547000
      4 N6           6.8440     1.2770    -0.1380 n8         1 DT2      -0.997100
      5 C16          4.7520    -0.3410     0.2800 ca         1 DT2      -0.302500
      6 C15          3.7860    -0.3050    -0.7450 ca         1 DT2       0.022000
      7 C14          2.4190    -0.3270    -0.4180 ca         1 DT2      -0.165500
      8 C13          2.0090    -0.3730     0.9240 ca         1 DT2       0.366000
      9 C18          2.9730    -0.4220     1.9410 ca         1 DT2      -0.165500
     10 C17          4.3420    -0.4000     1.6270 ca         1 DT2       0.022000
     11 N5           0.6570    -0.4230     1.2650 nu         1 DT2      -0.977000
     12 C9          -0.4910     0.0040     0.6260 cc         1 DT2       0.404000
     13 N2          -0.5730     1.1870    -0.1350 na         1 DT2       0.023900
     14 N3           0.4150     2.1130    -0.2910 nc         1 DT2      -0.598100
     15 C11         -0.2300     3.0010    -1.0500 cd         1 DT2       0.546200
     16 C10         -1.7490     1.5290    -0.7340 cc         1 DT2       0.474500
     17 N4          -1.5520     2.6750    -1.3400 nd         1 DT2      -0.407300
     18 N1          -2.9220     0.8380    -0.7200 nc         1 DT2      -0.756000
     19 C7          -2.8350    -0.2590    -0.0060 cd         1 DT2       0.687900
     20 C8          -1.6670    -0.7070     0.6760 cd         1 DT2      -0.341000
     21 N7          -3.9450    -1.0310     0.0850 nu         1 DT2      -0.919100
     22 C1          -5.2890    -0.6540    -0.3910 c6         1 DT2       0.237500
     23 C2          -6.0840    -1.9390    -0.7380 c6         1 DT2      -0.090400
     24 C3          -7.5330    -1.6030    -1.1750 c6         1 DT2      -0.070900
     25 C4          -8.2670    -0.7780    -0.0880 c6         1 DT2      -0.078400
     26 C5          -7.4740     0.5020     0.2760 c6         1 DT2      -0.070900
     27 C6          -6.0250     0.1610     0.7060 c6         1 DT2      -0.090400
     28 H6N1         7.6480     1.2930     0.4850 hn         1 DT2       0.471500
     29 H6N2         7.2810     1.3630    -1.0520 hn         1 DT2       0.471500
     30 H15          4.0860    -0.2620    -1.7910 ha         1 DT2       0.139000
     31 H14          1.6810    -0.3130    -1.2130 ha         1 DT2       0.125500
     32 H18          2.6630    -0.4690     2.9810 ha         1 DT2       0.125500
     33 H17          5.0770    -0.4300     2.4310 ha         1 DT2       0.139000
     34 H5           0.4660    -0.9140     2.1370 hn         1 DT2       0.505000
     35 H11          0.2170     3.9160    -1.4190 h5         1 DT2       0.070800
     36 H8          -1.7000    -1.6320     1.2340 ha         1 DT2       0.135000
     37 H7          -3.8400    -1.8420     0.6870 hn         1 DT2       0.492000
     38 H1          -5.2320    -0.0400    -1.3050 h1         1 DT2       0.088700
     39 H2C1        -5.5750    -2.4860    -1.5440 hc         1 DT2       0.045950
     40 H2C2        -6.1120    -2.6120     0.1300 hc         1 DT2       0.045950
     41 H3C1        -7.5140    -1.0390    -2.1180 hc         1 DT2       0.045450
     42 H3C2        -8.0860    -2.5300    -1.3770 hc         1 DT2       0.045450
     43 H4C1        -9.2720    -0.5080    -0.4400 hc         1 DT2       0.040700
     44 H4C2        -8.4070    -1.3940     0.8110 hc         1 DT2       0.040700
     45 H5C1        -7.4530     1.1820    -0.5870 hc         1 DT2       0.045450
     46 H5C2        -7.9870     1.0410     1.0840 hc         1 DT2       0.045450
     47 H6C1        -6.0470    -0.4090     1.6460 hc         1 DT2       0.045950
     48 H6C2        -5.4770     1.0890     0.9160 hc         1 DT2       0.045950
@<TRIPOS>BOND
     1     1     2 2   
     2     2     3 2   
     3     2     4 1   
     4     2     5 1   
     5     4    28 1   
     6     4    29 1   
     7     5     6 ar  
     8     5    10 ar  
     9     6     7 ar  
    10     6    30 1   
    11     7     8 ar  
    12     7    31 1   
    13     8     9 ar  
    14     8    11 1   
    15     9    10 ar  
    16     9    32 1   
    17    10    33 1   
    18    11    12 1   
    19    11    34 1   
    20    12    13 1   
    21    12    20 2   
    22    13    14 1   
    23    13    16 1   
    24    14    15 2   
    25    15    17 1   
    26    15    35 1   
    27    16    17 2   
    28    16    18 1   
    29    18    19 2   
    30    19    20 1   
    31    19    21 1   
    32    20    36 1   
    33    21    22 1   
    34    21    37 1   
    35    22    23 1   
    36    22    27 1   
    37    22    38 1   
    38    23    24 1   
    39    23    39 1   
    40    23    40 1   
    41    24    25 1   
    42    24    41 1   
    43    24    42 1   
    44    25    26 1   
    45    25    43 1   
    46    25    44 1   
    47    26    27 1   
    48    26    45 1   
    49    26    46 1   
    50    27    47 1   
    51    27    48 1   
@<TRIPOS>SUBSTRUCTURE
     1 DT2         1 TEMP              0 ****  ****    0 ROOT
