@<TRIPOS>MOLECULE
DT2
   48    51     1     0     0
SMALL
bcc


@<TRIPOS>ATOM
      1 O2           6.2190    -0.9980    -1.8150 o          1 DT2      -0.617800
      2 S1           6.2020    -0.3870    -0.4930 sy         1 DT2       1.272200
      3 O3           7.0740    -0.9410     0.5360 o          1 DT2      -0.617800
      4 N6           6.4630     1.2270    -0.7450 n8         1 DT2      -0.886700
      5 C16          4.5560    -0.3790     0.1330 ca         1 DT2      -0.302500
      6 C15          3.4940    -0.2760    -0.7570 ca         1 DT2       0.004000
      7 C14          2.1980    -0.2610    -0.2820 ca         1 DT2      -0.183500
      8 C13          1.9540    -0.3250     1.0920 ca         1 DT2       0.227600
      9 C18          3.0280    -0.4400     1.9740 ca         1 DT2      -0.183500
     10 C17          4.3260    -0.4760     1.4980 ca         1 DT2       0.004000
     11 N5           0.6680    -0.3220     1.6230 nu         1 DT2      -0.645000
     12 C9          -0.4800    -0.0070     0.9510 cc         1 DT2       0.316300
     13 N2          -0.5350     1.1550     0.2380 na         1 DT2      -0.026800
     14 N3           0.4210     2.0970     0.1130 nc         1 DT2      -0.598100
     15 C11         -0.1810     2.9840    -0.6420 cd         1 DT2       0.546200
     16 C10         -1.6760     1.5360    -0.4250 cc         1 DT2       0.474500
     17 N4          -1.4460     2.7060    -1.0030 nd         1 DT2      -0.407300
     18 N1          -2.7980     0.8300    -0.4090 nc         1 DT2      -0.756000
     19 C7          -2.7860    -0.2900     0.3020 cd         1 DT2       0.753200
     20 C8          -1.6210    -0.7480     0.9940 cd         1 DT2      -0.424300
     21 N7          -3.8920    -1.0420     0.3420 nu         1 DT2      -0.863900
     22 C1          -5.1450    -0.7090    -0.3070 c6         1 DT2       0.237500
     23 C2          -5.9260    -1.9920    -0.5800 c6         1 DT2      -0.090400
     24 C3          -7.2600    -1.6900    -1.2550 c6         1 DT2      -0.070900
     25 C4          -8.0930    -0.7070    -0.4380 c6         1 DT2      -0.078400
     26 C5          -7.3110     0.5730    -0.1630 c6         1 DT2      -0.070900
     27 C6          -5.9800     0.2700     0.5190 c6         1 DT2      -0.090400
     28 H6N1         6.6160     1.7350     0.1200 hn         1 DT2       0.416300
     29 H6N2         7.2430     1.3800    -1.3790 hn         1 DT2       0.416300
     30 H15          3.6630    -0.2260    -1.8240 ha         1 DT2       0.157000
     31 H14          1.3840    -0.2220    -0.9920 ha         1 DT2       0.143500
     32 H18          2.8490    -0.5010     3.0400 ha         1 DT2       0.143500
     33 H17          5.1450    -0.5670     2.1990 ha         1 DT2       0.157000
     34 H5           0.5310    -0.9040     2.4360 hn         1 DT2       0.449800
     35 H11          0.3270     3.8880    -0.9440 h5         1 DT2       0.070800
     36 H8          -1.6300    -1.6880     1.5270 ha         1 DT2       0.153000
     37 H7          -3.8860    -1.8460     0.9500 hn         1 DT2       0.436800
     38 H1          -4.9040    -0.2380    -1.2640 h1         1 DT2       0.088700
     39 H2C1        -5.3270    -2.6630    -1.2010 hc         1 DT2       0.045950
     40 H2C2        -6.1070    -2.5110     0.3690 hc         1 DT2       0.045950
     41 H3C1        -7.0740    -1.2680    -2.2480 hc         1 DT2       0.045450
     42 H3C2        -7.8110    -2.6200    -1.4110 hc         1 DT2       0.045450
     43 H4C1        -9.0250    -0.4780    -0.9600 hc         1 DT2       0.040700
     44 H4C2        -8.3730    -1.1730     0.5130 hc         1 DT2       0.040700
     45 H5C1        -7.1260     1.0960    -1.1070 hc         1 DT2       0.045450
     46 H5C2        -7.8980     1.2530     0.4580 hc         1 DT2       0.045450
     47 H6C1        -6.1640    -0.1700     1.5060 hc         1 DT2       0.045950
     48 H6C2        -5.4150     1.1910     0.6800 hc         1 DT2       0.045950
@<TRIPOS>BOND
     1     1     2 2   
     2     2     3 2   
     3     2     4 1   
     4     2     5 1   
     5     4    28 1   
     6     4    29 1   
     7     5     6 ar  
     8     5    10 ar  
     9     6     7 ar  
    10     6    30 1   
    11     7     8 ar  
    12     7    31 1   
    13     8     9 ar  
    14     8    11 1   
    15     9    10 ar  
    16     9    32 1   
    17    10    33 1   
    18    11    12 1   
    19    11    34 1   
    20    12    13 1   
    21    12    20 2   
    22    13    14 1   
    23    13    16 1   
    24    14    15 2   
    25    15    17 1   
    26    15    35 1   
    27    16    17 2   
    28    16    18 1   
    29    18    19 2   
    30    19    20 1   
    31    19    21 1   
    32    20    36 1   
    33    21    22 1   
    34    21    37 1   
    35    22    23 1   
    36    22    27 1   
    37    22    38 1   
    38    23    24 1   
    39    23    39 1   
    40    23    40 1   
    41    24    25 1   
    42    24    41 1   
    43    24    42 1   
    44    25    26 1   
    45    25    43 1   
    46    25    44 1   
    47    26    27 1   
    48    26    45 1   
    49    26    46 1   
    50    27    47 1   
    51    27    48 1   
@<TRIPOS>SUBSTRUCTURE
     1 DT2         1 TEMP              0 ****  ****    0 ROOT
