@<TRIPOS>MOLECULE
DT3
   20    19     1     0     0
SMALL
No Charge or Current Charge


@<TRIPOS>ATOM
      1 C2           1.6860    -0.4000    -0.1290 c3         1 DT3       0.181300
      2 O2           0.1750     0.7620     1.4070 oh         1 DT3      -0.723000
      3 C3           0.2700     0.2250     0.0830 c3         1 DT3       0.188300
      4 O3           1.9430    -1.3260     0.9420 oh         1 DT3      -0.653000
      5 C4          -0.8720    -0.7910    -0.0740 c3         1 DT3      -0.400400
      6 S2          -2.4890    -0.0150    -0.1530 s6         1 DT3       1.316600
      7 O4          -2.4510     0.7460    -1.4080 o          1 DT3      -0.689533
      8 O5          -2.5110     0.8060     1.0670 o          1 DT3      -0.689533
      9 O6          -3.4200    -1.1510    -0.1510 o          1 DT3      -0.689533
     10 C1           2.8020     0.6760    -0.1790 c3         1 DT3       0.056600
     11 S1           4.4930     0.0370    -0.6270 sh         1 DT3      -0.457800
     12 H2           1.6860    -0.9260    -1.0940 h1         1 DT3       0.073700
     13 HO2         -0.7960     0.9400     1.5370 ho         1 DT3       0.509000
     14 H3           0.1390     1.0220    -0.6630 h1         1 DT3       0.043700
     15 HO3          1.4320    -0.9490     1.6950 ho         1 DT3       0.454000
     16 H41         -0.7650    -1.3500    -1.0090 h1         1 DT3       0.083200
     17 H42         -0.8970    -1.4930     0.7650 h1         1 DT3       0.083200
     18 H11          2.5270     1.4360    -0.9220 h1         1 DT3       0.066200
     19 H12          2.8680     1.1790     0.7960 h1         1 DT3       0.066200
     20 HS1          5.1290     1.2310    -0.5520 hs         1 DT3       0.180800
@<TRIPOS>BOND
     1     1     3 1   
     2     1     4 1   
     3     1    10 1   
     4     1    12 1   
     5     2     3 1   
     6     2    13 1   
     7     3     5 1   
     8     3    14 1   
     9     4    15 1   
    10     5     6 1   
    11     5    16 1   
    12     5    17 1   
    13     6     7 1   
    14     6     8 1   
    15     6     9 1   
    16    10    11 1   
    17    10    18 1   
    18    10    19 1   
    19    11    20 1   
@<TRIPOS>SUBSTRUCTURE
     1 DT3         1 TEMP              0 ****  ****    0 ROOT
