@<TRIPOS>MOLECULE
DT3
   20    19     1     0     0
SMALL
abcg2


@<TRIPOS>ATOM
      1 C2           1.6510    -0.3470    -0.1250 c3         1 DT3       0.181300
      2 O2           0.2000     0.8790     1.2960 oh         1 DT3      -0.723000
      3 C3           0.2600     0.2780     0.0240 c3         1 DT3       0.188300
      4 O3           1.8980    -1.3100     0.8710 oh         1 DT3      -0.653000
      5 C4          -0.8250    -0.7810    -0.1640 c3         1 DT3      -0.400400
      6 S2          -2.4810    -0.0740    -0.0870 s6         1 DT3       1.316600
      7 O4          -2.5830     0.8620    -1.2200 o          1 DT3      -0.689533
      8 O5          -2.5160     0.6200     1.2320 o          1 DT3      -0.689533
      9 O6          -3.4230    -1.2010    -0.1600 o          1 DT3      -0.689533
     10 C1           2.7290     0.7310    -0.1400 c3         1 DT3       0.056600
     11 S1           4.3620    -0.0850    -0.1520 sh         1 DT3      -0.457800
     12 H2           1.6850    -0.8770    -1.0820 h1         1 DT3       0.073700
     13 HO2         -0.7420     0.9640     1.5310 ho         1 DT3       0.509000
     14 H3           0.1450     1.0240    -0.7760 h1         1 DT3       0.043700
     15 HO3          1.7290    -0.8950     1.7250 ho         1 DT3       0.454000
     16 H41         -0.7230    -1.2620    -1.1390 h1         1 DT3       0.083200
     17 H42         -0.7600    -1.5510     0.6070 h1         1 DT3       0.083200
     18 H11          2.6270     1.3430    -1.0360 h1         1 DT3       0.066200
     19 H12          2.6510     1.3830     0.7310 h1         1 DT3       0.066200
     20 HS1          5.0630     0.9580    -0.6080 hs         1 DT3       0.180800
@<TRIPOS>BOND
     1     1     3 1   
     2     1     4 1   
     3     1    10 1   
     4     1    12 1   
     5     2     3 1   
     6     2    13 1   
     7     3     5 1   
     8     3    14 1   
     9     4    15 1   
    10     5     6 1   
    11     5    16 1   
    12     5    17 1   
    13     6     7 1   
    14     6     8 1   
    15     6     9 1   
    16    10    11 1   
    17    10    18 1   
    18    10    19 1   
    19    11    20 1   
@<TRIPOS>SUBSTRUCTURE
     1 DT3         1 TEMP              0 ****  ****    0 ROOT
