@<TRIPOS>MOLECULE
DT4
   50    53     1     0     0
SMALL
abcg2


@<TRIPOS>ATOM
      1 O2          -7.4580    -0.0290     0.4810 o          1 DT4      -0.544000
      2 S1          -6.5200     0.4720    -0.5150 sy         1 DT4       1.130600
      3 O3          -6.5510    -0.1100    -1.8500 o          1 DT4      -0.544000
      4 N6          -6.6450     2.1060    -0.7400 n8         1 DT4      -1.003100
      5 C16         -4.8940     0.3330     0.1500 ca         1 DT4      -0.301500
      6 C15         -4.7070     0.1600     1.5140 ca         1 DT4       0.022500
      7 C14         -3.4230     0.0450     2.0140 ca         1 DT4      -0.165500
      8 C13         -2.3220     0.1040     1.1600 ca         1 DT4       0.366000
      9 C18         -2.5240     0.2960    -0.2090 ca         1 DT4      -0.165500
     10 C17         -3.8050     0.4030    -0.7110 ca         1 DT4       0.022500
     11 N5          -1.0510     0.0070     1.7170 nu         1 DT4      -0.977000
     12 C9           0.1090    -0.1980     1.0220 cc         1 DT4       0.403000
     13 N2           0.1770    -1.2400     0.1440 na         1 DT4       0.023900
     14 N3          -0.7790    -2.1480    -0.1380 nc         1 DT4      -0.594100
     15 C11         -0.1640    -2.9160    -1.0060 cd         1 DT4       0.547200
     16 C10          1.3290    -1.5230    -0.5480 cc         1 DT4       0.472500
     17 N4           1.1090    -2.5920    -1.2980 nd         1 DT4      -0.406300
     18 N1           2.4490    -0.8280    -0.4090 nc         1 DT4      -0.756000
     19 C7           2.4210     0.1810     0.4500 cd         1 DT4       0.685900
     20 C8           1.2460     0.5320     1.1850 cd         1 DT4      -0.340000
     21 N7           3.5220     0.9280     0.6060 nu         1 DT4      -0.919100
     22 C1           4.7880     0.6700    -0.0510 c6         1 DT4       0.232500
     23 C2           5.5500     1.9780    -0.2380 c6         1 DT4      -0.086900
     24 C3           6.8860     1.7390    -0.9330 c6         1 DT4      -0.088400
     25 C4           7.7500     0.7240    -0.1930 c6         1 DT4       0.153500
     26 N8           9.0190     0.5610    -0.8880 n8         1 DT4      -0.989200
     27 C5           6.9710    -0.5770     0.0120 c6         1 DT4      -0.088400
     28 C6           5.6390    -0.3420     0.7160 c6         1 DT4      -0.086900
     29 H6N1        -7.3860     2.3320    -1.3970 hn         1 DT4       0.471000
     30 H6N2        -6.7860     2.6090     0.1300 hn         1 DT4       0.471000
     31 H15         -5.5470     0.1050     2.1910 ha         1 DT4       0.139000
     32 H14         -3.2740    -0.1010     3.0770 ha         1 DT4       0.125500
     33 H18         -1.6890     0.3840    -0.8900 ha         1 DT4       0.125500
     34 H17         -3.9440     0.5520    -1.7730 ha         1 DT4       0.139000
     35 H5          -0.9310     0.4470     2.6170 hn         1 DT4       0.505000
     36 H11         -0.6680    -3.7620    -1.4490 h5         1 DT4       0.072800
     37 H8           1.2450     1.3850     1.8490 ha         1 DT4       0.135000
     38 H7           3.5070     1.6340     1.3240 hn         1 DT4       0.492000
     39 H1           4.5650     0.2570    -1.0380 h1         1 DT4       0.092700
     40 H2C1         5.7250     2.4390     0.7410 hc         1 DT4       0.047450
     41 H2C2         4.9450     2.6800    -0.8170 hc         1 DT4       0.047450
     42 H3C1         7.4280     2.6820    -1.0330 hc         1 DT4       0.048950
     43 H3C2         6.7030     1.3740    -1.9520 hc         1 DT4       0.048950
     44 H4           7.9780     1.1390     0.7980 h1         1 DT4       0.057700
     45 H8N1         9.5970    -0.1020    -0.3860 hn         1 DT4       0.393000
     46 H8N2         8.8510     0.1400    -1.7960 hn         1 DT4       0.393000
     47 H5C1         6.7930    -1.0380    -0.9670 hc         1 DT4       0.048950
     48 H5C2         7.5750    -1.2850     0.5860 hc         1 DT4       0.048950
     49 H6C1         5.8160     0.0390     1.7280 hc         1 DT4       0.047450
     50 H6C2         5.0910    -1.2810     0.8210 hc         1 DT4       0.047450
@<TRIPOS>BOND
     1     1     2 2   
     2     2     3 2   
     3     2     4 1   
     4     2     5 1   
     5     4    29 1   
     6     4    30 1   
     7     5     6 ar  
     8     5    10 ar  
     9     6     7 ar  
    10     6    31 1   
    11     7     8 ar  
    12     7    32 1   
    13     8     9 ar  
    14     8    11 1   
    15     9    10 ar  
    16     9    33 1   
    17    10    34 1   
    18    11    12 1   
    19    11    35 1   
    20    12    13 1   
    21    12    20 2   
    22    13    14 1   
    23    13    16 1   
    24    14    15 2   
    25    15    17 1   
    26    15    36 1   
    27    16    17 2   
    28    16    18 1   
    29    18    19 2   
    30    19    20 1   
    31    19    21 1   
    32    20    37 1   
    33    21    22 1   
    34    21    38 1   
    35    22    23 1   
    36    22    28 1   
    37    22    39 1   
    38    23    24 1   
    39    23    40 1   
    40    23    41 1   
    41    24    25 1   
    42    24    42 1   
    43    24    43 1   
    44    25    26 1   
    45    25    27 1   
    46    25    44 1   
    47    26    45 1   
    48    26    46 1   
    49    27    28 1   
    50    27    47 1   
    51    27    48 1   
    52    28    49 1   
    53    28    50 1   
@<TRIPOS>SUBSTRUCTURE
     1 DT4         1 TEMP              0 ****  ****    0 ROOT
