@<TRIPOS>MOLECULE
DT4
   50    53     1     0     0
SMALL
No Charge or Current Charge


@<TRIPOS>ATOM
      1 O2          -7.6640    -0.1700     0.9510 o          1 DT4      -0.544000
      2 S1          -6.8470     0.3760    -0.1310 sy         1 DT4       1.130600
      3 O3          -7.0450    -0.0030    -1.5280 o          1 DT4      -0.544000
      4 N6          -7.1980     1.9670    -0.1110 n8         1 DT4      -1.003100
      5 C16         -5.1070     0.3450     0.3010 ca         1 DT4      -0.301500
      6 C15         -4.7160     0.2620     1.6520 ca         1 DT4       0.022500
      7 C14         -3.3510     0.2390     1.9850 ca         1 DT4      -0.165500
      8 C13         -2.3740     0.2910     0.9810 ca         1 DT4       0.366000
      9 C18         -2.7660     0.3930    -0.3640 ca         1 DT4      -0.165500
     10 C17         -4.1280     0.4150    -0.7090 ca         1 DT4       0.022500
     11 N5          -1.0270     0.2920     1.3420 nu         1 DT4      -0.977000
     12 C9           0.1260    -0.0820     0.6780 cc         1 DT4       0.403000
     13 N2           0.2050    -1.1800    -0.2010 na         1 DT4       0.023900
     14 N3          -0.7920    -2.0700    -0.4680 nc         1 DT4      -0.594100
     15 C11         -0.1460    -2.8830    -1.3060 cd         1 DT4       0.547200
     16 C10          1.3860    -1.4750    -0.8160 cc         1 DT4       0.472500
     17 N4           1.1840    -2.5480    -1.5400 nd         1 DT4      -0.406300
     18 N1           2.5670    -0.8060    -0.7120 nc         1 DT4      -0.756000
     19 C7           2.4830     0.2120     0.1110 cd         1 DT4       0.685900
     20 C8           1.3100     0.6030     0.8190 cd         1 DT4      -0.340000
     21 N7           3.6020     0.9540     0.2990 nu         1 DT4      -0.919100
     22 C1           4.9420     0.6280    -0.2230 c6         1 DT4       0.232500
     23 C2           5.7430     1.9410    -0.4220 c6         1 DT4      -0.086900
     24 C3           7.1910     1.6510    -0.8950 c6         1 DT4      -0.088400
     25 C4           7.9230     0.7070     0.0930 c6         1 DT4       0.153500
     26 N8           9.2840     0.4120    -0.3920 n8         1 DT4      -0.989200
     27 C5           7.1260    -0.6060     0.3000 c6         1 DT4      -0.088400
     28 C6           5.6770    -0.3120     0.7690 c6         1 DT4      -0.086900
     29 H6N1        -7.6240     2.0720    -1.0280 hn         1 DT4       0.471000
     30 H6N2        -8.0100     1.9680     0.5030 hn         1 DT4       0.471000
     31 H15         -5.4620     0.2160     2.4450 ha         1 DT4       0.139000
     32 H14         -3.0560     0.1740     3.0280 ha         1 DT4       0.125500
     33 H18         -2.0160     0.4590    -1.1450 ha         1 DT4       0.125500
     34 H17         -4.4140     0.4920    -1.7570 ha         1 DT4       0.139000
     35 H5          -0.8430     0.6880     2.2630 hn         1 DT4       0.505000
     36 H11         -0.6000    -3.7490    -1.7740 h5         1 DT4       0.072800
     37 H8           1.3470     1.4640     1.4720 ha         1 DT4       0.135000
     38 H7           3.4970     1.7060     0.9730 hn         1 DT4       0.492000
     39 H1           4.8790     0.1240    -1.2020 h1         1 DT4       0.092700
     40 H2C1         5.7750     2.5090     0.5180 hc         1 DT4       0.047450
     41 H2C2         5.2360     2.5790    -1.1580 hc         1 DT4       0.047450
     42 H3C1         7.7430     2.5960    -0.9900 hc         1 DT4       0.048950
     43 H3C2         7.1650     1.2010    -1.8980 hc         1 DT4       0.048950
     44 H4           8.0200     1.2190     1.0650 h1         1 DT4       0.057700
     45 H8N1         9.7280    -0.2500     0.2550 hn         1 DT4       0.393000
     46 H8N2         9.2130    -0.1190    -1.2670 hn         1 DT4       0.393000
     47 H5C1         7.0950    -1.1820    -0.6370 hc         1 DT4       0.048950
     48 H5C2         7.6290    -1.2410     1.0420 hc         1 DT4       0.048950
     49 H6C1         5.7020     0.1430     1.7690 hc         1 DT4       0.047450
     50 H6C2         5.1260    -1.2570     0.8690 hc         1 DT4       0.047450
@<TRIPOS>BOND
     1     1     2 2   
     2     2     3 2   
     3     2     4 1   
     4     2     5 1   
     5     4    29 1   
     6     4    30 1   
     7     5     6 ar  
     8     5    10 ar  
     9     6     7 ar  
    10     6    31 1   
    11     7     8 ar  
    12     7    32 1   
    13     8     9 ar  
    14     8    11 1   
    15     9    10 ar  
    16     9    33 1   
    17    10    34 1   
    18    11    12 1   
    19    11    35 1   
    20    12    13 1   
    21    12    20 2   
    22    13    14 1   
    23    13    16 1   
    24    14    15 2   
    25    15    17 1   
    26    15    36 1   
    27    16    17 2   
    28    16    18 1   
    29    18    19 2   
    30    19    20 1   
    31    19    21 1   
    32    20    37 1   
    33    21    22 1   
    34    21    38 1   
    35    22    23 1   
    36    22    28 1   
    37    22    39 1   
    38    23    24 1   
    39    23    40 1   
    40    23    41 1   
    41    24    25 1   
    42    24    42 1   
    43    24    43 1   
    44    25    26 1   
    45    25    27 1   
    46    25    44 1   
    47    26    45 1   
    48    26    46 1   
    49    27    28 1   
    50    27    47 1   
    51    27    48 1   
    52    28    49 1   
    53    28    50 1   
@<TRIPOS>SUBSTRUCTURE
     1 DT4         1 TEMP              0 ****  ****    0 ROOT
