@<TRIPOS>MOLECULE
DT5
   47    50     1     0     0
SMALL
abcg2


@<TRIPOS>ATOM
      1 N6           6.4330     1.2970    -0.7220 n8         1 DT5      -1.000100
      2 S1           6.1940    -0.3280    -0.5280 sy         1 DT5       1.131600
      3 O2           7.0720    -0.9080     0.4800 o          1 DT5      -0.546000
      4 O3           6.2150    -0.8900    -1.8710 o          1 DT5      -0.546000
      5 C16          4.5470    -0.3660     0.1010 ca         1 DT5      -0.298500
      6 C15          3.4850    -0.1940    -0.7800 ca         1 DT5       0.021000
      7 C17          4.3170    -0.5810     1.4520 ca         1 DT5       0.021000
      8 C18          3.0180    -0.6010     1.9260 ca         1 DT5      -0.162000
      9 C14          2.1890    -0.2320    -0.3080 ca         1 DT5      -0.162000
     10 C13          1.9460    -0.4220     1.0530 ca         1 DT5       0.362000
     11 N5           0.6550    -0.4950     1.5750 nu         1 DT5      -0.975000
     12 C9          -0.4850    -0.0840     0.9550 cc         1 DT5       0.397000
     13 N2          -0.5270     1.1530     0.3860 na         1 DT5       0.030900
     14 C10         -1.6620     1.6330    -0.2240 cc         1 DT5       0.465500
     15 N1          -2.7930     0.9360    -0.2890 nc         1 DT5      -0.759000
     16 N4          -1.4190     2.8560    -0.6560 nd         1 DT5      -0.393300
     17 C11         -0.1490     3.0700    -0.2720 cd         1 DT5       0.543200
     18 N3           0.4410     2.0870     0.3680 nc         1 DT5      -0.589100
     19 C8          -1.6430    -0.8080     0.9090 cd         1 DT5      -0.306000
     20 C7          -2.7790    -0.2450     0.2750 cd         1 DT5       0.670300
     21 O1          -3.8500    -1.0160     0.2540 os         1 DT5      -0.460300
     22 C1          -5.0450    -0.5880    -0.4270 c6         1 DT5       0.182300
     23 C2          -5.7930    -1.8510    -0.8210 c6         1 DT5      -0.088900
     24 C3          -7.1070    -1.4940    -1.5110 c6         1 DT5      -0.072400
     25 C4          -7.9700    -0.5940    -0.6340 c6         1 DT5      -0.079400
     26 C5          -7.2060     0.6590    -0.2190 c6         1 DT5      -0.072400
     27 C6          -5.8880     0.3050     0.4690 c6         1 DT5      -0.088900
     28 H6           6.5950     1.7750     0.1590 hn         1 DT5       0.473000
     29 H7           7.1960     1.4840    -1.3660 hn         1 DT5       0.473000
     30 H15          3.6570    -0.0510    -1.8390 ha         1 DT5       0.140000
     31 H17          5.1370    -0.7240     2.1420 ha         1 DT5       0.140000
     32 H18          2.8360    -0.7540     2.9820 ha         1 DT5       0.125500
     33 H14          1.3750    -0.1410    -1.0140 ha         1 DT5       0.125500
     34 H5           0.5140    -1.1880     2.2960 hn         1 DT5       0.510000
     35 H11          0.3730     3.9960    -0.4650 h5         1 DT5       0.073800
     36 H8          -1.6780    -1.8070     1.3210 ha         1 DT5       0.154000
     37 H1          -4.7600    -0.0390    -1.3300 h1         1 DT5       0.076700
     38 H2C1        -5.1700    -2.4610    -1.4800 hc         1 DT5       0.054450
     39 H2C2        -5.9980    -2.4480     0.0740 hc         1 DT5       0.054450
     40 H3C1        -6.8930    -0.9840    -2.4560 hc         1 DT5       0.045700
     41 H3C2        -7.6440    -2.4090    -1.7690 hc         1 DT5       0.045700
     42 H4C1        -8.8870    -0.3210    -1.1610 hc         1 DT5       0.042200
     43 H4C2        -8.2750    -1.1440     0.2620 hc         1 DT5       0.042200
     44 H5C1        -7.0060     1.2750    -1.1020 hc         1 DT5       0.045700
     45 H5C2        -7.8120     1.2710     0.4510 hc         1 DT5       0.045700
     46 H6C1        -6.0960    -0.2220     1.4060 hc         1 DT5       0.054450
     47 H6C2        -5.3410     1.2150     0.7240 hc         1 DT5       0.054450
@<TRIPOS>BOND
     1     1     2 1   
     2     1    28 1   
     3     1    29 1   
     4     2     3 2   
     5     2     4 2   
     6     2     5 1   
     7     5     6 ar  
     8     5     7 ar  
     9     6     9 ar  
    10     6    30 1   
    11     7     8 ar  
    12     7    31 1   
    13     8    10 ar  
    14     8    32 1   
    15     9    10 ar  
    16     9    33 1   
    17    10    11 1   
    18    11    12 1   
    19    11    34 1   
    20    12    13 1   
    21    12    19 2   
    22    13    14 1   
    23    13    18 1   
    24    14    15 1   
    25    14    16 2   
    26    15    20 2   
    27    16    17 1   
    28    17    18 2   
    29    17    35 1   
    30    19    20 1   
    31    19    36 1   
    32    20    21 1   
    33    21    22 1   
    34    22    23 1   
    35    22    27 1   
    36    22    37 1   
    37    23    24 1   
    38    23    38 1   
    39    23    39 1   
    40    24    25 1   
    41    24    40 1   
    42    24    41 1   
    43    25    26 1   
    44    25    42 1   
    45    25    43 1   
    46    26    27 1   
    47    26    44 1   
    48    26    45 1   
    49    27    46 1   
    50    27    47 1   
@<TRIPOS>SUBSTRUCTURE
     1 DT5         1 TEMP              0 ****  ****    0 ROOT
