@<TRIPOS>MOLECULE
DT5
   47    50     1     0     0
SMALL
No Charge or Current Charge


@<TRIPOS>ATOM
      1 N6           6.8140     1.4090     0.3260 n8         1 DT5      -1.000100
      2 S1           6.5170    -0.1800     0.1230 sy         1 DT5       1.131600
      3 O2           7.2460    -0.8090     1.2220 o          1 DT5      -0.546000
      4 O3           6.8570    -0.4170    -1.2770 o          1 DT5      -0.546000
      5 C16          4.7460    -0.2920     0.3820 ca         1 DT5      -0.298500
      6 C15          3.8630    -0.1550    -0.7080 ca         1 DT5       0.021000
      7 C17          4.2340    -0.5190     1.6740 ca         1 DT5       0.021000
      8 C18          2.8450    -0.6070     1.8710 ca         1 DT5      -0.162000
      9 C14          2.4770    -0.2460    -0.4990 ca         1 DT5      -0.162000
     10 C13          1.9630    -0.4590     0.7900 ca         1 DT5       0.362000
     11 N5           0.5910    -0.5780     1.0110 nu         1 DT5      -0.975000
     12 C9          -0.5160    -0.0970     0.3350 cc         1 DT5       0.397000
     13 N2          -0.5700     1.1700    -0.2820 na         1 DT5       0.030900
     14 C10         -1.6990     1.5640    -0.9400 cc         1 DT5       0.465500
     15 N1          -2.8510     0.8590    -1.1130 nc         1 DT5      -0.759000
     16 N4          -1.4810     2.7770    -1.3840 nd         1 DT5      -0.393300
     17 C11         -0.1980     3.0860    -0.9410 cd         1 DT5       0.543200
     18 N3           0.4020     2.1230    -0.2400 nc         1 DT5      -0.589100
     19 C8          -1.6710    -0.8300     0.1970 cd         1 DT5      -0.306000
     20 C7          -2.7940    -0.3210    -0.5210 cd         1 DT5       0.670300
     21 O1          -3.8780    -1.1480    -0.6160 os         1 DT5      -0.460300
     22 C1          -5.2220    -0.6320    -0.7400 c6         1 DT5       0.182300
     23 C2          -6.1830    -1.8010    -1.0750 c6         1 DT5      -0.088900
     24 C3          -7.6530    -1.3210    -1.1680 c6         1 DT5      -0.072400
     25 C4          -8.0920    -0.6110     0.1360 c6         1 DT5      -0.079400
     26 C5          -7.1370     0.5560     0.4850 c6         1 DT5      -0.072400
     27 C6          -5.6670     0.0730     0.5730 c6         1 DT5      -0.088900
     28 H6           7.5650     1.3690     1.0110 hn         1 DT5       0.473000
     29 H7           7.3200     1.6120    -0.5320 hn         1 DT5       0.473000
     30 H15          4.2430     0.0170    -1.7140 ha         1 DT5       0.140000
     31 H17          4.9040    -0.6270     2.5270 ha         1 DT5       0.140000
     32 H18          2.4560    -0.7830     2.8690 ha         1 DT5       0.125500
     33 H14          1.8030    -0.1530    -1.3450 ha         1 DT5       0.125500
     34 H5           0.3470    -1.1680     1.8060 hn         1 DT5       0.510000
     35 H11          0.2560     4.0460    -1.1570 h5         1 DT5       0.073800
     36 H8          -1.7370    -1.8200     0.6260 ha         1 DT5       0.154000
     37 H1          -5.2610     0.0880    -1.5720 h1         1 DT5       0.076700
     38 H2C1        -5.8840    -2.2630    -2.0260 hc         1 DT5       0.054450
     39 H2C2        -6.0980    -2.5830    -0.3070 hc         1 DT5       0.054450
     40 H3C1        -7.7650    -0.6340    -2.0190 hc         1 DT5       0.045700
     41 H3C2        -8.3130    -2.1760    -1.3680 hc         1 DT5       0.045700
     42 H4C1        -9.1180    -0.2350     0.0290 hc         1 DT5       0.042200
     43 H4C2        -8.1100    -1.3350     0.9630 hc         1 DT5       0.042200
     44 H5C1        -7.2230     1.3450    -0.2760 hc         1 DT5       0.045700
     45 H5C2        -7.4380     1.0110     1.4390 hc         1 DT5       0.045700
     46 H6C1        -5.5550    -0.6170     1.4200 hc         1 DT5       0.054450
     47 H6C2        -5.0170     0.9330     0.7810 hc         1 DT5       0.054450
@<TRIPOS>BOND
     1     1     2 1   
     2     1    28 1   
     3     1    29 1   
     4     2     3 2   
     5     2     4 2   
     6     2     5 1   
     7     5     6 ar  
     8     5     7 ar  
     9     6     9 ar  
    10     6    30 1   
    11     7     8 ar  
    12     7    31 1   
    13     8    10 ar  
    14     8    32 1   
    15     9    10 ar  
    16     9    33 1   
    17    10    11 1   
    18    11    12 1   
    19    11    34 1   
    20    12    13 1   
    21    12    19 2   
    22    13    14 1   
    23    13    18 1   
    24    14    15 1   
    25    14    16 2   
    26    15    20 2   
    27    16    17 1   
    28    17    18 2   
    29    17    35 1   
    30    19    20 1   
    31    19    36 1   
    32    20    21 1   
    33    21    22 1   
    34    22    23 1   
    35    22    27 1   
    36    22    37 1   
    37    23    24 1   
    38    23    38 1   
    39    23    39 1   
    40    24    25 1   
    41    24    40 1   
    42    24    41 1   
    43    25    26 1   
    44    25    42 1   
    45    25    43 1   
    46    26    27 1   
    47    26    44 1   
    48    26    45 1   
    49    27    46 1   
    50    27    47 1   
@<TRIPOS>SUBSTRUCTURE
     1 DT5         1 TEMP              0 ****  ****    0 ROOT
