@<TRIPOS>MOLECULE
DT6
   36    36     1     0     0
SMALL
No Charge or Current Charge


@<TRIPOS>ATOM
      1 O1           4.8890    47.0910     6.4730 oh         1 DT6      -0.616000
      2 C1           3.6390    46.4400     6.5470 c6         1 DT6       0.386300
      3 C2           3.0500    46.1250     5.1360 c6         1 DT6       0.086700
      4 N2           2.7410    47.3540     4.3580 ns         1 DT6      -0.495900
      5 C3           1.7740    45.2550     5.3340 c6         1 DT6       0.156300
      6 N3           0.8480    43.1850     6.3880 ns         1 DT6      -0.503900
      7 O3           1.2180    44.8670     4.0680 oh         1 DT6      -0.633000
      8 C4           2.0780    43.9920     6.1940 c6         1 DT6       0.036700
      9 C5           2.7370    44.4350     7.5420 c6         1 DT6       0.164300
     10 O5           3.9120    45.2270     7.2510 os         1 DT6      -0.484000
     11 C6           3.2150    43.2570     8.4570 c3         1 DT6       0.164600
     12 O6           2.1370    42.5360     9.0890 oh         1 DT6      -0.732000
     13 C7           3.5930    47.9840     3.4820 c          1 DT6       0.615100
     14 O7           4.7060    47.5540     3.2170 o          1 DT6      -0.587100
     15 C8           3.0340    49.2530     2.8520 c3         1 DT6      -0.179100
     16 O8           1.6840    41.1330     5.8440 o          1 DT6      -0.593100
     17 C9           0.7590    41.8170     6.2580 c          1 DT6       0.612100
     18 C10         -0.5880    41.2250     6.6490 c3         1 DT6      -0.181100
     19 HO1          5.4350    46.5950     7.1160 ho         1 DT6       0.456000
     20 H1           2.9350    47.0530     7.1280 h2         1 DT6       0.006700
     21 H2           3.7930    45.5320     4.5840 h1         1 DT6       0.128700
     22 HN2          1.8290    47.7770     4.4770 hn         1 DT6       0.303500
     23 H3           1.0330    45.8590     5.8780 h1         1 DT6       0.013700
     24 HN3          0.0300    43.6450     6.7730 hn         1 DT6       0.305500
     25 HO3          0.5640    44.1610     4.2600 ho         1 DT6       0.452000
     26 H4           2.8160    43.3820     5.6500 h1         1 DT6       0.114700
     27 H5           2.0330    45.0540     8.1180 h1         1 DT6       0.039700
     28 H61          3.8230    42.5750     7.8470 h1         1 DT6       0.043700
     29 H62          3.8750    43.6790     9.2270 h1         1 DT6       0.043700
     30 HO6          2.5490    41.8420     9.6560 ho         1 DT6       0.516000
     31 H81          2.0770    49.0210     2.3700 hc         1 DT6       0.058367
     32 H82          2.7320    49.9430     3.6480 hc         1 DT6       0.058367
     33 H83          3.7350    49.7220     2.1530 hc         1 DT6       0.058367
     34 H10         -0.6260    40.1380     6.5140 hc         1 DT6       0.061367
     35 H10A        -0.8150    41.5120     7.6820 hc         1 DT6       0.061367
     36 H10B        -1.3790    41.7320     6.0860 hc         1 DT6       0.061367
@<TRIPOS>BOND
     1     1     2 1   
     2     1    19 1   
     3     2     3 1   
     4     2    10 1   
     5     2    20 1   
     6     3     4 1   
     7     3     5 1   
     8     3    21 1   
     9     4    13 1   
    10     4    22 1   
    11     5     7 1   
    12     5     8 1   
    13     5    23 1   
    14     6     8 1   
    15     6    17 1   
    16     6    24 1   
    17     7    25 1   
    18     8     9 1   
    19     8    26 1   
    20     9    10 1   
    21     9    11 1   
    22     9    27 1   
    23    11    12 1   
    24    11    28 1   
    25    11    29 1   
    26    12    30 1   
    27    13    14 2   
    28    13    15 1   
    29    15    31 1   
    30    15    32 1   
    31    15    33 1   
    32    16    17 2   
    33    17    18 1   
    34    18    34 1   
    35    18    35 1   
    36    18    36 1   
@<TRIPOS>SUBSTRUCTURE
     1 DT6         1 TEMP              0 ****  ****    0 ROOT
