@<TRIPOS>MOLECULE
DT6
   36    36     1     0     0
SMALL
bcc


@<TRIPOS>ATOM
      1 O1           4.8670    47.0170     6.3770 oh         1 DT6      -0.553800
      2 C1           3.6790    46.3440     6.5450 c6         1 DT6       0.339900
      3 C2           3.0700    46.0710     5.1680 c6         1 DT6       0.086700
      4 N2           2.7680    47.3030     4.4880 ns         1 DT6      -0.562900
      5 C3           1.8150    45.2220     5.3290 c6         1 DT6       0.133100
      6 N3           0.8690    43.2630     6.3870 ns         1 DT6      -0.570900
      7 O3           1.3560    44.8770     4.0510 oh         1 DT6      -0.570800
      8 C4           2.1030    43.9800     6.1800 c6         1 DT6       0.036700
      9 C5           2.7800    44.3800     7.4970 c6         1 DT6       0.141100
     10 O5           3.9400    45.1270     7.2000 os         1 DT6      -0.437600
     11 C6           3.2470    43.2060     8.3480 c3         1 DT6       0.141400
     12 O6           2.1340    42.5890     8.9480 oh         1 DT6      -0.609800
     13 C7           3.4460    47.7730     3.4230 c          1 DT6       0.682100
     14 O7           4.3710    47.1730     2.8950 o          1 DT6      -0.587100
     15 C8           2.9820    49.1130     2.9090 c3         1 DT6      -0.179100
     16 O8           1.6190    41.1970     5.8390 o          1 DT6      -0.593100
     17 C9           0.7430    41.9210     6.2840 c          1 DT6       0.679100
     18 C10         -0.5760    41.3800     6.7740 c3         1 DT6      -0.181100
     19 HO1          5.1130    47.4470     7.2030 ho         1 DT6       0.417000
     20 H1           2.9600    46.9280     7.1480 h2         1 DT6       0.006700
     21 H2           3.8020    45.5200     4.5720 h1         1 DT6       0.128700
     22 HN2          2.0200    47.8650     4.8650 hn         1 DT6       0.303500
     23 H3           1.0630    45.8280     5.8650 h1         1 DT6       0.013700
     24 HN3          0.1330    43.7630     6.8640 hn         1 DT6       0.305500
     25 HO3          0.5520    44.3570     4.1540 ho         1 DT6       0.413000
     26 H4           2.7830    43.3280     5.6270 h1         1 DT6       0.114700
     27 H5           2.0790    44.9890     8.0920 h1         1 DT6       0.039700
     28 H61          3.8150    42.5080     7.7200 h1         1 DT6       0.043700
     29 H62          3.9400    43.5990     9.1040 h1         1 DT6       0.043700
     30 HO6          2.4460    41.8160     9.4260 ho         1 DT6       0.417000
     31 H81          2.7260    49.0280     1.8530 hc         1 DT6       0.058367
     32 H82          2.1230    49.5180     3.4410 hc         1 DT6       0.058367
     33 H83          3.8010    49.8280     2.9860 hc         1 DT6       0.058367
     34 H10         -0.8550    40.4940     6.2080 hc         1 DT6       0.061367
     35 H10A        -0.4680    41.0890     7.8210 hc         1 DT6       0.061367
     36 H10B        -1.3840    42.1080     6.7140 hc         1 DT6       0.061367
@<TRIPOS>BOND
     1     1     2 1   
     2     1    19 1   
     3     2     3 1   
     4     2    10 1   
     5     2    20 1   
     6     3     4 1   
     7     3     5 1   
     8     3    21 1   
     9     4    13 1   
    10     4    22 1   
    11     5     7 1   
    12     5     8 1   
    13     5    23 1   
    14     6     8 1   
    15     6    17 1   
    16     6    24 1   
    17     7    25 1   
    18     8     9 1   
    19     8    26 1   
    20     9    10 1   
    21     9    11 1   
    22     9    27 1   
    23    11    12 1   
    24    11    28 1   
    25    11    29 1   
    26    12    30 1   
    27    13    14 2   
    28    13    15 1   
    29    15    31 1   
    30    15    32 1   
    31    15    33 1   
    32    16    17 2   
    33    17    18 1   
    34    18    34 1   
    35    18    35 1   
    36    18    36 1   
@<TRIPOS>SUBSTRUCTURE
     1 DT6         1 TEMP              0 ****  ****    0 ROOT
