@<TRIPOS>MOLECULE
DT7
   34    35     1     0     0
SMALL
bcc


@<TRIPOS>ATOM
      1 CAA          4.6020     2.2680     0.1360 c3         1 DT7       0.121700
      2 CAB          3.5580    -3.0220    -0.0970 c3         1 DT7       0.121700
      3 NAD         -4.1950    -0.3690    -1.3450 n8         1 DT7      -0.928700
      4 OAE         -4.3470     0.8170     0.8230 o          1 DT7      -0.621800
      5 OAF         -3.6210    -1.5740     0.8670 o          1 DT7      -0.621800
      6 CAG          1.9160     1.4590    -0.0050 ca         1 DT7      -0.189000
      7 CAH          1.3820    -1.2450    -0.1280 ca         1 DT7      -0.186000
      8 CAI         -0.5300     2.0300    -0.1200 c6         1 DT7      -0.027100
      9 CAJ         -1.7990     1.4200    -0.6810 c6         1 DT7       0.204800
     10 OAK          4.2690     0.8960     0.0940 os         1 DT7      -0.295900
     11 OAL          3.7690    -1.6290    -0.0120 os         1 DT7      -0.296900
     12 CAM          0.5880     1.0250    -0.0930 ca         1 DT7      -0.056300
     13 CAN          2.9670     0.5640     0.0190 ca         1 DT7       0.120100
     14 CAO          2.6930    -0.8210    -0.0440 ca         1 DT7       0.114100
     15 CAP          0.3230    -0.3300    -0.1510 ca         1 DT7      -0.082300
     16 CAQ         -1.0780    -0.8740    -0.2640 c6         1 DT7       0.253100
     17 NAR         -2.0540     0.1690     0.0330 n3         1 DT7      -0.727500
     18 SAS         -3.6260    -0.2800     0.2070 s6         1 DT7       1.396800
     19 HAA          5.6870     2.3220     0.1780 h1         1 DT7       0.040033
     20 HAAA         4.2570     2.7990    -0.7560 h1         1 DT7       0.040033
     21 HAAB         4.1910     2.7640     1.0200 h1         1 DT7       0.040033
     22 HAB          3.0610    -3.3050    -1.0290 h1         1 DT7       0.039700
     23 HABA         4.5400    -3.4870    -0.0680 h1         1 DT7       0.039700
     24 HABB         2.9670    -3.3980     0.7430 h1         1 DT7       0.039700
     25 HNAD        -5.2080    -0.3120    -1.3810 hn         1 DT7       0.416300
     26 HNAA        -3.8790    -1.1990    -1.8350 hn         1 DT7       0.416300
     27 HAG          2.1010     2.5250     0.0400 ha         1 DT7       0.137000
     28 HAH          1.1550    -2.3030    -0.1760 ha         1 DT7       0.137000
     29 HAI         -0.2480     2.8930    -0.7280 hc         1 DT7       0.060200
     30 HAIA        -0.7250     2.4080     0.8870 hc         1 DT7       0.060200
     31 HAJ         -2.6340     2.1050    -0.5450 h1         1 DT7       0.058700
     32 HAJA        -1.6960     1.2300    -1.7540 h1         1 DT7       0.058700
     33 HAQ         -1.2260    -1.2830    -1.2730 h1         1 DT7       0.058200
     34 HAQA        -1.2030    -1.6930     0.4420 h1         1 DT7       0.058200
@<TRIPOS>BOND
     1     1    10 1   
     2     1    19 1   
     3     1    20 1   
     4     1    21 1   
     5     2    11 1   
     6     2    22 1   
     7     2    23 1   
     8     2    24 1   
     9     3    18 1   
    10     3    25 1   
    11     3    26 1   
    12     4    18 2   
    13     5    18 2   
    14     6    12 ar  
    15     6    13 ar  
    16     6    27 1   
    17     7    14 ar  
    18     7    15 ar  
    19     7    28 1   
    20     8     9 1   
    21     8    12 1   
    22     8    29 1   
    23     8    30 1   
    24     9    17 1   
    25     9    31 1   
    26     9    32 1   
    27    10    13 1   
    28    11    14 1   
    29    12    15 ar  
    30    13    14 ar  
    31    15    16 1   
    32    16    17 1   
    33    16    33 1   
    34    16    34 1   
    35    17    18 1   
@<TRIPOS>SUBSTRUCTURE
     1 DT7         1 TEMP              0 ****  ****    0 ROOT
