@<TRIPOS>MOLECULE
DT7
   34    35     1     0     0
SMALL
No Charge or Current Charge


@<TRIPOS>ATOM
      1 CAA          4.5930     2.4180     0.1070 c3         1 DT7       0.144900
      2 CAB          3.5750    -3.0570     0.8020 c3         1 DT7       0.144900
      3 NAD         -4.4420     0.5950     0.0470 n8         1 DT7      -1.039100
      4 OAE         -3.8870    -1.7750     0.1910 o          1 DT7      -0.551000
      5 OAF         -4.0370    -0.6370    -2.1120 o          1 DT7      -0.551000
      6 CAG          1.8860     1.4380    -0.2730 ca         1 DT7      -0.171000
      7 CAH          1.3750    -1.3050     0.0760 ca         1 DT7      -0.168000
      8 CAI         -0.5530     1.8930    -0.8190 c6         1 DT7      -0.027100
      9 CAJ         -1.8150     1.1640    -1.3300 c6         1 DT7       0.204800
     10 OAK          4.2380     1.0330     0.2640 os         1 DT7      -0.319100
     11 OAL          3.7400    -1.6420     0.6010 os         1 DT7      -0.320100
     12 CAM          0.5840     0.9380    -0.4540 ca         1 DT7      -0.056300
     13 CAN          2.9440     0.5700     0.0800 ca         1 DT7       0.120100
     14 CAO          2.6870    -0.8100     0.2560 ca         1 DT7       0.114100
     15 CAP          0.3240    -0.4350    -0.2740 ca         1 DT7      -0.082300
     16 CAQ         -1.0910    -0.9970    -0.4780 c6         1 DT7       0.253100
     17 NAR         -2.1650     0.0250    -0.4420 n3         1 DT7      -0.727500
     18 SAS         -3.7060    -0.6290    -0.6900 s6         1 DT7       1.255200
     19 HAA          5.6640     2.5590     0.2980 h1         1 DT7       0.040033
     20 HAAA         4.3820     2.7620    -0.9130 h1         1 DT7       0.040033
     21 HAAB         4.0360     3.0460     0.8150 h1         1 DT7       0.040033
     22 HAB          3.2080    -3.5400    -0.1130 h1         1 DT7       0.039700
     23 HABA         4.5340    -3.5170     1.0680 h1         1 DT7       0.039700
     24 HABB         2.8650    -3.2550     1.6150 h1         1 DT7       0.039700
     25 HNAD        -3.6130     0.9810     0.4920 hn         1 DT7       0.471500
     26 HNAA        -4.9080     0.0900     0.7940 hn         1 DT7       0.471500
     27 HAG          2.0570     2.5020    -0.4100 ha         1 DT7       0.119000
     28 HAH          1.1540    -2.3610     0.2040 ha         1 DT7       0.119000
     29 HAI         -0.2170     2.6120    -1.5780 hc         1 DT7       0.060200
     30 HAIA        -0.8180     2.4820     0.0700 hc         1 DT7       0.060200
     31 HAJ         -2.6320     1.8980    -1.3930 h1         1 DT7       0.058700
     32 HAJA        -1.6330     0.8060    -2.3540 h1         1 DT7       0.058700
     33 HAQ         -1.1040    -1.5260    -1.4430 h1         1 DT7       0.058200
     34 HAQA        -1.2680    -1.7560     0.2990 h1         1 DT7       0.058200
@<TRIPOS>BOND
     1     1    10 1   
     2     1    19 1   
     3     1    20 1   
     4     1    21 1   
     5     2    11 1   
     6     2    22 1   
     7     2    23 1   
     8     2    24 1   
     9     3    18 1   
    10     3    25 1   
    11     3    26 1   
    12     4    18 2   
    13     5    18 2   
    14     6    12 ar  
    15     6    13 ar  
    16     6    27 1   
    17     7    14 ar  
    18     7    15 ar  
    19     7    28 1   
    20     8     9 1   
    21     8    12 1   
    22     8    29 1   
    23     8    30 1   
    24     9    17 1   
    25     9    31 1   
    26     9    32 1   
    27    10    13 1   
    28    11    14 1   
    29    12    15 ar  
    30    13    14 ar  
    31    15    16 1   
    32    16    17 1   
    33    16    33 1   
    34    16    34 1   
    35    17    18 1   
@<TRIPOS>SUBSTRUCTURE
     1 DT7         1 TEMP              0 ****  ****    0 ROOT
