@<TRIPOS>MOLECULE
DT8
   68    72     1     0     0
SMALL
No Charge or Current Charge


@<TRIPOS>ATOM
      1 O34          0.0350     0.4020     1.4240 o          1 DT8      -0.603100
      2 C21         -0.7900    -0.1810     0.7300 c          1 DT8       0.603100
      3 N35         -1.4230     0.4990    -0.3420 n          1 DT8      -0.411800
      4 C37         -1.1370     1.9320    -0.5790 c3         1 DT8       0.090800
      5 C36         -2.2850    -0.1910    -1.3310 c3         1 DT8       0.090800
      6 C17         -1.1130    -1.6750     1.0180 c6         1 DT8      -0.141700
      7 C18         -0.1120    -2.6380     0.3260 c6         1 DT8      -0.070400
      8 C19         -0.4890    -4.1180     0.5850 c6         1 DT8      -0.098400
      9 C13         -0.6270    -4.4190     2.1050 c6         1 DT8       0.102700
     10 N12         -0.9900    -5.8300     2.3130 ns         1 DT8      -0.487900
     11 C11         -0.1190    -6.8940     2.3090 c          1 DT8       0.633300
     12 O14          1.0850    -6.7510     2.1440 o          1 DT8      -0.617100
     13 C8          -0.7600    -8.2200     2.5250 cc         1 DT8      -0.138300
     14 N7          -0.1560    -9.4990     2.5810 na         1 DT8      -0.180700
     15 C5          -1.1150   -10.4770     2.7970 ca         1 DT8      -0.038200
     16 C4          -0.9530   -11.8630     2.9180 ca         1 DT8      -0.117000
     17 C3          -2.1110   -12.6440     3.1380 ca         1 DT8      -0.078000
     18 C2          -3.3840   -12.0280     3.2310 ca         1 DT8       0.089000
     19 Cl1         -4.8140   -13.0160     3.5060 cl         1 DT8      -0.213000
     20 C9          -2.1190    -8.4780     2.7170 cd         1 DT8      -0.196200
     21 C6          -2.3440    -9.8900     2.8880 ca         1 DT8      -0.108800
     22 C1          -3.5140   -10.6280     3.1050 ca         1 DT8      -0.045000
     23 C16         -1.3010    -1.9960     2.5300 c6         1 DT8      -0.082400
     24 C15         -1.6860    -3.4820     2.7680 c6         1 DT8       0.097700
     25 N20         -3.0440    -3.7550     2.2580 ns         1 DT8      -0.494900
     26 C22         -4.2310    -3.4900     2.9180 c          1 DT8       0.526600
     27 O32         -4.2420    -3.0250     4.0530 o          1 DT8      -0.589100
     28 C23         -5.4490    -3.8310     2.1090 cc         1 DT8       0.326900
     29 S27         -7.0330    -3.5560     2.7930 ss         1 DT8       0.120600
     30 C26         -7.7050    -4.1630     1.3100 cc         1 DT8      -0.254300
     31 C28         -9.1760    -4.3140     1.0350 c6         1 DT8       0.244100
     32 N29         -9.4180    -4.4550    -0.4260 n3         1 DT8      -0.713600
     33 C33        -10.8480    -4.6710    -0.7350 c3         1 DT8       0.151100
     34 C30         -8.5390    -5.4920    -1.0310 c6         1 DT8       0.164800
     35 C31         -7.0530    -5.0800    -0.9390 c6         1 DT8      -0.099700
     36 C25         -6.7250    -4.5320     0.4240 cd         1 DT8       0.290300
     37 N24         -5.4280    -4.3420     0.8700 nd         1 DT8      -0.636000
     38 H371        -1.2010     2.4880     0.3650 h1         1 DT8       0.041200
     39 H372        -1.8610     2.3610    -1.2830 h1         1 DT8       0.041200
     40 H373        -0.1270     2.0420    -0.9940 h1         1 DT8       0.041200
     41 H361        -3.2450    -0.4530    -0.8680 h1         1 DT8       0.041200
     42 H362        -1.7930    -1.1020    -1.6920 h1         1 DT8       0.041200
     43 H363        -2.4790     0.4590    -2.1950 h1         1 DT8       0.041200
     44 H17         -2.0720    -1.8840     0.5330 hc         1 DT8       0.056700
     45 H181         0.9030    -2.4470     0.7030 hc         1 DT8       0.055700
     46 H182        -0.0800    -2.4460    -0.7550 hc         1 DT8       0.055700
     47 H191        -1.4240    -4.3590     0.0600 hc         1 DT8       0.051200
     48 H192         0.2810    -4.7670     0.1460 hc         1 DT8       0.051200
     49 H13          0.3450    -4.2370     2.5900 h1         1 DT8       0.090700
     50 HN12        -1.9620    -6.0500     2.4730 hn         1 DT8       0.326500
     51 HN7          0.8390    -9.6750     2.4760 hn         1 DT8       0.374000
     52 H4           0.0280   -12.3260     2.8450 ha         1 DT8       0.123000
     53 H3          -2.0260   -13.7230     3.2370 ha         1 DT8       0.129000
     54 H9          -2.9100    -7.7320     2.7350 ha         1 DT8       0.206000
     55 H1          -4.4850   -10.1440     3.1740 ha         1 DT8       0.131000
     56 H161        -0.3700    -1.7770     3.0710 hc         1 DT8       0.072700
     57 H162        -2.0660    -1.3380     2.9630 hc         1 DT8       0.072700
     58 H15         -1.6840    -3.6730     3.8520 h1         1 DT8       0.094700
     59 HN20        -3.1460    -4.1200     1.3160 hn         1 DT8       0.335500
     60 H281        -9.5580    -5.1970     1.5710 h1         1 DT8       0.048700
     61 H282        -9.7230    -3.4430     1.4270 h1         1 DT8       0.048700
     62 H331       -11.4610    -3.8570    -0.3240 h1         1 DT8       0.034700
     63 H332       -11.2030    -5.6190    -0.3090 h1         1 DT8       0.034700
     64 H333       -11.0110    -4.6990    -1.8210 h1         1 DT8       0.034700
     65 H301        -8.7950    -5.6510    -2.0890 h1         1 DT8       0.038700
     66 H302        -8.6820    -6.4530    -0.5150 h1         1 DT8       0.038700
     67 H311        -6.8440    -4.3150    -1.6970 hc         1 DT8       0.065200
     68 H312        -6.4150    -5.9400    -1.1770 hc         1 DT8       0.065200
@<TRIPOS>BOND
     1     1     2 2   
     2     2     3 1   
     3     2     6 1   
     4     3     4 1   
     5     3     5 1   
     6     4    38 1   
     7     4    39 1   
     8     4    40 1   
     9     5    41 1   
    10     5    42 1   
    11     5    43 1   
    12     6     7 1   
    13     6    23 1   
    14     6    44 1   
    15     7     8 1   
    16     7    45 1   
    17     7    46 1   
    18     8     9 1   
    19     8    47 1   
    20     8    48 1   
    21     9    10 1   
    22     9    24 1   
    23     9    49 1   
    24    10    11 1   
    25    10    50 1   
    26    11    12 2   
    27    11    13 1   
    28    13    14 1   
    29    13    20 2   
    30    14    15 1   
    31    14    51 1   
    32    15    16 ar  
    33    15    21 ar  
    34    16    17 ar  
    35    16    52 1   
    36    17    18 ar  
    37    17    53 1   
    38    18    19 1   
    39    18    22 ar  
    40    20    21 1   
    41    20    54 1   
    42    21    22 ar  
    43    22    55 1   
    44    23    24 1   
    45    23    56 1   
    46    23    57 1   
    47    24    25 1   
    48    24    58 1   
    49    25    26 1   
    50    25    59 1   
    51    26    27 2   
    52    26    28 1   
    53    28    29 1   
    54    28    37 2   
    55    29    30 1   
    56    30    31 1   
    57    30    36 2   
    58    31    32 1   
    59    31    60 1   
    60    31    61 1   
    61    32    33 1   
    62    32    34 1   
    63    33    62 1   
    64    33    63 1   
    65    33    64 1   
    66    34    35 1   
    67    34    65 1   
    68    34    66 1   
    69    35    36 1   
    70    35    67 1   
    71    35    68 1   
    72    36    37 1   
@<TRIPOS>SUBSTRUCTURE
     1 DT8         1 TEMP              0 ****  ****    0 ROOT
