@<TRIPOS>MOLECULE
DT8
   68    72     1     0     0
SMALL
abcg2


@<TRIPOS>ATOM
      1 O34         -0.2260     0.3030     1.5600 o          1 DT8      -0.603100
      2 C21         -0.8600    -0.3130     0.7090 c          1 DT8       0.603100
      3 N35         -1.2130     0.2690    -0.4530 n          1 DT8      -0.411800
      4 C37         -0.8900     1.6710    -0.6460 c3         1 DT8       0.090800
      5 C36         -1.8970    -0.3920    -1.5480 c3         1 DT8       0.090800
      6 C17         -1.2490    -1.7640     0.9390 c6         1 DT8      -0.141700
      7 C18         -0.1500    -2.6960     0.4090 c6         1 DT8      -0.070400
      8 C19         -0.5100    -4.1590     0.6380 c6         1 DT8      -0.098400
      9 C13         -0.8130    -4.4420     2.1100 c6         1 DT8       0.102700
     10 N12         -1.2250    -5.8120     2.3280 ns         1 DT8      -0.487900
     11 C11         -0.3650    -6.8230     2.5210 c          1 DT8       0.633300
     12 O14          0.8500    -6.6840     2.5880 o          1 DT8      -0.617100
     13 C8          -0.9720    -8.1620     2.6690 cc         1 DT8      -0.138300
     14 N7          -0.1470    -9.2440     2.7940 na         1 DT8      -0.180700
     15 C5          -0.8930   -10.3700     2.9220 ca         1 DT8      -0.038200
     16 C4          -0.5060   -11.7020     3.0750 ca         1 DT8      -0.117000
     17 C3          -1.5000   -12.6490     3.1850 ca         1 DT8      -0.078000
     18 C2          -2.8530   -12.2710     3.1410 ca         1 DT8       0.089000
     19 CL1         -4.0580   -13.5170     3.2840 cl         1 DT8      -0.213000
     20 C9          -2.2790    -8.5760     2.7160 cd         1 DT8      -0.196200
     21 C6          -2.2530    -9.9880     2.8770 ca         1 DT8      -0.108800
     22 C1          -3.2520   -10.9640     2.9910 ca         1 DT8      -0.045000
     23 C16         -1.4800    -2.0370     2.4230 c6         1 DT8      -0.082400
     24 C15         -1.8750    -3.4920     2.6730 c6         1 DT8       0.097700
     25 N20         -3.1830    -3.8030     2.1210 ns         1 DT8      -0.494900
     26 C22         -4.3130    -3.7520     2.8460 c          1 DT8       0.526600
     27 O32         -4.3770    -3.5580     4.0490 o          1 DT8      -0.589100
     28 C23         -5.5520    -3.9640     2.0630 cc         1 DT8       0.326900
     29 S27         -7.0670    -3.9350     2.8730 ss         1 DT8       0.120600
     30 C26         -7.8350    -4.2180     1.3720 cc         1 DT8      -0.254300
     31 C28         -9.3050    -4.3470     1.1520 c6         1 DT8       0.244100
     32 N29         -9.5940    -4.1990    -0.2610 n3         1 DT8      -0.713600
     33 C33        -11.0000    -4.4190    -0.5170 c3         1 DT8       0.151100
     34 C30         -8.7470    -5.0520    -1.0780 c6         1 DT8       0.164800
     35 C31         -7.2980    -4.5780    -1.0340 c6         1 DT8      -0.099700
     36 C25         -6.9040    -4.3180     0.3790 cd         1 DT8       0.290300
     37 N24         -5.6140    -4.1670     0.7850 nd         1 DT8      -0.636000
     38 H371        -1.1080     2.2540     0.2470 h1         1 DT8       0.041200
     39 H372        -1.4960     2.0630    -1.4600 h1         1 DT8       0.041200
     40 H373         0.1610     1.8160    -0.9040 h1         1 DT8       0.041200
     41 H361        -2.9700    -0.1930    -1.5360 h1         1 DT8       0.041200
     42 H362        -1.7440    -1.4660    -1.5380 h1         1 DT8       0.041200
     43 H363        -1.4940    -0.0280    -2.4920 h1         1 DT8       0.041200
     44 H17         -2.1790    -1.9850     0.4070 hc         1 DT8       0.056700
     45 H181         0.7890    -2.4580     0.9180 hc         1 DT8       0.055700
     46 H182         0.0250    -2.5290    -0.6560 hc         1 DT8       0.055700
     47 H191        -1.3690    -4.4350     0.0180 hc         1 DT8       0.051200
     48 H192         0.3130    -4.7980     0.3150 hc         1 DT8       0.051200
     49 H13          0.0950    -4.2690     2.6910 h1         1 DT8       0.090700
     50 HN12        -2.2020    -6.0190     2.1840 hn         1 DT8       0.326500
     51 HN7          0.8600    -9.1920     2.7920 hn         1 DT8       0.374000
     52 H4           0.5360   -11.9890     3.1110 ha         1 DT8       0.123000
     53 H3          -1.2390   -13.6920     3.3060 ha         1 DT8       0.129000
     54 H9          -3.1610    -7.9590     2.6550 ha         1 DT8       0.206000
     55 H1          -4.3000   -10.6960     2.9590 ha         1 DT8       0.131000
     56 H161        -0.5700    -1.8250     2.9870 hc         1 DT8       0.072700
     57 H162        -2.2600    -1.3860     2.8230 hc         1 DT8       0.072700
     58 H15         -1.9410    -3.6570     3.7490 h1         1 DT8       0.094700
     59 HN20        -3.2960    -3.8820     1.1200 hn         1 DT8       0.335500
     60 H281        -9.6450    -5.3200     1.5500 h1         1 DT8       0.048700
     61 H282        -9.8470    -3.5790     1.7100 h1         1 DT8       0.048700
     62 H331       -11.6000    -3.7310     0.0800 h1         1 DT8       0.034700
     63 H332       -11.3310    -5.4430    -0.2840 h1         1 DT8       0.034700
     64 H333       -11.2200    -4.2280    -1.5680 h1         1 DT8       0.034700
     65 H301        -9.1070    -5.0150    -2.1070 h1         1 DT8       0.038700
     66 H302        -8.8040    -6.1060    -0.7590 h1         1 DT8       0.038700
     67 H311        -7.1830    -3.6680    -1.6300 hc         1 DT8       0.065200
     68 H312        -6.6460    -5.3320    -1.4780 hc         1 DT8       0.065200
@<TRIPOS>BOND
     1     1     2 2   
     2     2     3 1   
     3     2     6 1   
     4     3     4 1   
     5     3     5 1   
     6     4    38 1   
     7     4    39 1   
     8     4    40 1   
     9     5    41 1   
    10     5    42 1   
    11     5    43 1   
    12     6     7 1   
    13     6    23 1   
    14     6    44 1   
    15     7     8 1   
    16     7    45 1   
    17     7    46 1   
    18     8     9 1   
    19     8    47 1   
    20     8    48 1   
    21     9    10 1   
    22     9    24 1   
    23     9    49 1   
    24    10    11 1   
    25    10    50 1   
    26    11    12 2   
    27    11    13 1   
    28    13    14 1   
    29    13    20 2   
    30    14    15 1   
    31    14    51 1   
    32    15    16 ar  
    33    15    21 ar  
    34    16    17 ar  
    35    16    52 1   
    36    17    18 ar  
    37    17    53 1   
    38    18    19 1   
    39    18    22 ar  
    40    20    21 1   
    41    20    54 1   
    42    21    22 ar  
    43    22    55 1   
    44    23    24 1   
    45    23    56 1   
    46    23    57 1   
    47    24    25 1   
    48    24    58 1   
    49    25    26 1   
    50    25    59 1   
    51    26    27 2   
    52    26    28 1   
    53    28    29 1   
    54    28    37 2   
    55    29    30 1   
    56    30    31 1   
    57    30    36 2   
    58    31    32 1   
    59    31    60 1   
    60    31    61 1   
    61    32    33 1   
    62    32    34 1   
    63    33    62 1   
    64    33    63 1   
    65    33    64 1   
    66    34    35 1   
    67    34    65 1   
    68    34    66 1   
    69    35    36 1   
    70    35    67 1   
    71    35    68 1   
    72    36    37 1   
@<TRIPOS>SUBSTRUCTURE
     1 DT8         1 TEMP              0 ****  ****    0 ROOT
