@<TRIPOS>MOLECULE
DT9
   37    38     1     0     0
SMALL
No Charge or Current Charge


@<TRIPOS>ATOM
      1 CAA          4.4640     2.3660     0.6820 c3         1 DT9       0.144900
      2 CAB          3.4360    -3.1430     0.3960 c3         1 DT9       0.144900
      3 CAC         -1.0850    -1.4520    -2.3300 c3         1 DT9      -0.081100
      4 NAD         -3.8090    -1.0680     0.5860 n8         1 DT9      -1.019100
      5 OAE         -3.8580     1.3530     0.8210 o          1 DT9      -0.561000
      6 OAF         -1.9180     0.0120     1.8450 o          1 DT9      -0.561000
      7 CAG          1.8000     1.4750    -0.0550 ca         1 DT9      -0.167000
      8 CAH          1.2840    -1.2850    -0.1980 ca         1 DT9      -0.158000
      9 CAI         -0.5890     2.0390    -0.6900 c6         1 DT9      -0.065100
     10 CAJ         -1.8350     1.4190    -1.3640 c6         1 DT9       0.198800
     11 OAK          4.1080     0.9760     0.5840 os         1 DT9      -0.320100
     12 OAL          3.6050    -1.7160     0.4440 os         1 DT9      -0.320100
     13 CAM          0.5190     1.0190    -0.4140 ca         1 DT9      -0.062300
     14 CAN          2.8350     0.5560     0.2300 ca         1 DT9       0.121100
     15 CAO          2.5750    -0.8330     0.1590 ca         1 DT9       0.115100
     16 CAP          0.2550    -0.3660    -0.4850 ca         1 DT9      -0.098300
     17 CAQ         -1.1390    -0.8860    -0.8860 c6         1 DT9       0.271800
     18 NAR         -2.2230     0.1260    -0.7430 n3         1 DT9      -0.740500
     19 SAS         -2.9120     0.2450     0.8020 s6         1 DT9       1.249200
     20 HAA          4.3270     2.8730    -0.2810 h1         1 DT9       0.039700
     21 HAAA         3.8510     2.8730     1.4390 h1         1 DT9       0.039700
     22 HAAB         5.5170     2.4680     0.9740 h1         1 DT9       0.039700
     23 HAB          3.1440    -3.4680    -0.6110 h1         1 DT9       0.039700
     24 HABA         4.3760    -3.6460     0.6560 h1         1 DT9       0.039700
     25 HABB         2.6680    -3.4700     1.1090 h1         1 DT9       0.039700
     26 HAC         -0.4040    -2.3080    -2.3900 hc         1 DT9       0.042033
     27 HACA        -2.0740    -1.7950    -2.6540 hc         1 DT9       0.042033
     28 HACB        -0.7340    -0.7040    -3.0490 hc         1 DT9       0.042033
     29 HNAD        -3.6850    -1.1250    -0.4210 hn         1 DT9       0.477500
     30 HNAA        -4.7320    -0.6600     0.6950 hn         1 DT9       0.477500
     31 HAG          1.9730     2.5450    -0.0000 ha         1 DT9       0.119000
     32 HAH          1.0640    -2.3460    -0.2580 ha         1 DT9       0.118000
     33 HAI         -0.2050     2.8490    -1.3240 hc         1 DT9       0.063700
     34 HAIA        -0.8820     2.5100     0.2580 hc         1 DT9       0.063700
     35 HAJ         -2.6640     2.1420    -1.3350 h1         1 DT9       0.073700
     36 HAJA        -1.6100     1.2720    -2.4300 h1         1 DT9       0.073700
     37 HAQ         -1.3590    -1.7530    -0.2440 h1         1 DT9       0.075700
@<TRIPOS>BOND
     1     1    11 1   
     2     1    20 1   
     3     1    21 1   
     4     1    22 1   
     5     2    12 1   
     6     2    23 1   
     7     2    24 1   
     8     2    25 1   
     9     3    17 1   
    10     3    26 1   
    11     3    27 1   
    12     3    28 1   
    13     4    19 1   
    14     4    29 1   
    15     4    30 1   
    16     5    19 2   
    17     6    19 2   
    18     7    13 ar  
    19     7    14 ar  
    20     7    31 1   
    21     8    15 ar  
    22     8    16 ar  
    23     8    32 1   
    24     9    10 1   
    25     9    13 1   
    26     9    33 1   
    27     9    34 1   
    28    10    18 1   
    29    10    35 1   
    30    10    36 1   
    31    11    14 1   
    32    12    15 1   
    33    13    16 ar  
    34    14    15 ar  
    35    16    17 1   
    36    17    18 1   
    37    17    37 1   
    38    18    19 1   
@<TRIPOS>SUBSTRUCTURE
     1 DT9         1 TEMP              0 ****  ****    0 ROOT
