@<TRIPOS>MOLECULE
DT9
   37    38     1     0     0
SMALL
bcc


@<TRIPOS>ATOM
      1 CAA          4.4330     2.2600     0.6970 c3         1 DT9       0.121700
      2 CAB          3.3900    -3.0240     0.3360 c3         1 DT9       0.121700
      3 CAC         -1.0770    -1.4960    -2.2410 c3         1 DT9      -0.081100
      4 NAD         -3.8550    -1.1100     0.4030 n8         1 DT9      -0.908700
      5 OAE         -3.8190     1.4840     0.4650 o          1 DT9      -0.631800
      6 OAF         -2.2120     0.1180     1.7810 o          1 DT9      -0.631800
      7 CAG          1.8410     1.4730    -0.0470 ca         1 DT9      -0.185000
      8 CAH          1.3030    -1.2250    -0.2090 ca         1 DT9      -0.176000
      9 CAI         -0.5150     2.0800    -0.6620 c6         1 DT9      -0.065100
     10 CAJ         -1.6840     1.4710    -1.4110 c6         1 DT9       0.198800
     11 OAK          4.1130     0.8920     0.5550 os         1 DT9      -0.296900
     12 OAL          3.6080    -1.6310     0.4120 os         1 DT9      -0.296900
     13 CAM          0.5510     1.0510    -0.3960 ca         1 DT9      -0.062300
     14 CAN          2.8510     0.5690     0.2170 ca         1 DT9       0.121100
     15 CAO          2.5750    -0.8130     0.1340 ca         1 DT9       0.115100
     16 CAP          0.2830    -0.3040    -0.4760 ca         1 DT9      -0.098300
     17 CAQ         -1.0780    -0.8420    -0.8610 c6         1 DT9       0.271800
     18 NAR         -2.1080     0.2050    -0.8170 n3         1 DT9      -0.740500
     19 SAS         -3.0000     0.2860     0.5690 s6         1 DT9       1.390800
     20 HAA          4.3160     2.8090    -0.2410 h1         1 DT9       0.039700
     21 HAAA         3.8240     2.7430     1.4650 h1         1 DT9       0.039700
     22 HAAB         5.4770     2.3040     0.9980 h1         1 DT9       0.039700
     23 HAB          3.1000    -3.3390    -0.6700 h1         1 DT9       0.039700
     24 HABA         4.3330    -3.5010     0.5940 h1         1 DT9       0.039700
     25 HABB         2.6240    -3.3580     1.0420 h1         1 DT9       0.039700
     26 HAC         -0.3470    -2.3040    -2.2780 hc         1 DT9       0.042033
     27 HACA        -2.0580    -1.9180    -2.4570 hc         1 DT9       0.042033
     28 HACB        -0.8230    -0.7870    -3.0300 hc         1 DT9       0.042033
     29 HNAD        -4.5320    -1.0730    -0.3510 hn         1 DT9       0.422300
     30 HNAA        -4.2930    -1.3940     1.2730 hn         1 DT9       0.422300
     31 HAG          2.0310     2.5370     0.0110 ha         1 DT9       0.137000
     32 HAH          1.0730    -2.2820    -0.2710 ha         1 DT9       0.136000
     33 HAI         -0.1050     2.9080    -1.2450 hc         1 DT9       0.063700
     34 HAIA        -0.8590     2.5160     0.2820 hc         1 DT9       0.063700
     35 HAJ         -2.5260     2.1550    -1.4720 h1         1 DT9       0.073700
     36 HAJA        -1.3950     1.2480    -2.4390 h1         1 DT9       0.073700
     37 HAQ         -1.3560    -1.6160    -0.1440 h1         1 DT9       0.075700
@<TRIPOS>BOND
     1     1    11 1   
     2     1    20 1   
     3     1    21 1   
     4     1    22 1   
     5     2    12 1   
     6     2    23 1   
     7     2    24 1   
     8     2    25 1   
     9     3    17 1   
    10     3    26 1   
    11     3    27 1   
    12     3    28 1   
    13     4    19 1   
    14     4    29 1   
    15     4    30 1   
    16     5    19 2   
    17     6    19 2   
    18     7    13 ar  
    19     7    14 ar  
    20     7    31 1   
    21     8    15 ar  
    22     8    16 ar  
    23     8    32 1   
    24     9    10 1   
    25     9    13 1   
    26     9    33 1   
    27     9    34 1   
    28    10    18 1   
    29    10    35 1   
    30    10    36 1   
    31    11    14 1   
    32    12    15 1   
    33    13    16 ar  
    34    14    15 ar  
    35    16    17 1   
    36    17    18 1   
    37    17    37 1   
    38    18    19 1   
@<TRIPOS>SUBSTRUCTURE
     1 DT9         1 TEMP              0 ****  ****    0 ROOT
