@<TRIPOS>MOLECULE
DTA
   62    67     1     0     0
SMALL
bcc


@<TRIPOS>ATOM
      1 N62          5.5510    -1.3420    -6.7490 nv         1 DTA      -0.951500
      2 C62          6.4570    -1.8970    -5.9430 ca         1 DTA       0.780200
      3 N12          7.4660    -2.5970    -6.4730 nb         1 DTA      -0.826500
      4 C22          8.3760    -3.1360    -5.6650 ca         1 DTA       0.707400
      5 N32          8.4410    -3.0790    -4.3460 nb         1 DTA      -0.767000
      6 C42          7.4320    -2.3780    -3.8330 ca         1 DTA       0.456300
      7 C52          6.4080    -1.7710    -4.5420 ca         1 DTA      -0.231200
      8 N72          5.5240    -1.1610    -3.6940 nc         1 DTA      -0.559600
      9 C82          6.0030    -1.3910    -2.5060 cd         1 DTA       0.415700
     10 N92          7.1680    -2.1100    -2.5200 na         1 DTA      -0.278500
     11 C1           7.9300    -2.5940    -1.3670 c5         1 DTA       0.246800
     12 O4           7.3560    -2.0850    -0.2060 os         1 DTA      -0.384100
     13 C2           9.3770    -2.0860    -1.3830 c5         1 DTA       0.098100
     14 O2          10.1680    -2.8560    -0.5250 oh         1 DTA      -0.578300
     15 C3           9.1920    -0.7070    -0.7610 c5         1 DTA       0.097100
     16 O3          10.3830    -0.1970    -0.2490 oh         1 DTA      -0.570800
     17 C4           8.1090    -0.9790     0.2970 c5         1 DTA       0.138100
     18 C5           7.2060     0.2150     0.5350 c3         1 DTA      -0.016800
     19 S5           5.7590    -0.2890     1.5230 ss         1 DTA      -0.155600
     20 S5R          4.8260     1.5080     1.8310 ss         1 DTA      -0.155600
     21 C5R          3.8430     1.6690     0.3030 c3         1 DTA      -0.016800
     22 C4R          3.1840     3.0300     0.2530 c5         1 DTA       0.138100
     23 O4R          4.1790     4.0420     0.2670 os         1 DTA      -0.384100
     24 C3R          2.3860     3.2430    -1.0360 c5         1 DTA       0.097100
     25 O3R          1.0600     2.8280    -0.8520 oh         1 DTA      -0.570800
     26 C2R          2.5220     4.7560    -1.2560 c5         1 DTA       0.098100
     27 O2R          1.5620     5.4510    -0.5070 oh         1 DTA      -0.578300
     28 C1R          3.8900     5.0680    -0.6400 c5         1 DTA       0.246800
     29 N91          4.9740     5.2020    -1.5920 na         1 DTA      -0.278500
     30 C81          5.7090     6.3440    -1.7650 cc         1 DTA       0.415700
     31 N71          6.6530     6.2320    -2.6480 nd         1 DTA      -0.559600
     32 C51          6.5480     4.9370    -3.0860 ca         1 DTA      -0.231200
     33 C41          5.5130     4.2740    -2.4420 ca         1 DTA       0.456300
     34 N31          5.1550     3.0070    -2.6430 nb         1 DTA      -0.767000
     35 C21          5.9070     2.4130    -3.5530 ca         1 DTA       0.707400
     36 N11          6.9250     2.9220    -4.2410 nb         1 DTA      -0.826500
     37 C61          7.2790     4.1940    -4.0320 ca         1 DTA       0.780200
     38 N61          8.3010     4.7090    -4.7170 nv         1 DTA      -0.951500
     39 H621         4.7420    -0.8780    -6.3740 hn         1 DTA       0.452050
     40 H622         5.5770    -1.5220    -7.7380 hn         1 DTA       0.452050
     41 H22          9.1640    -3.6950    -6.1590 h5         1 DTA       0.053600
     42 H82          5.5370    -1.0780    -1.5840 h5         1 DTA       0.075800
     43 H1           7.8720    -3.6860    -1.3610 h2         1 DTA       0.102700
     44 H2           9.7900    -2.0350    -2.3950 h1         1 DTA       0.081700
     45 HO2         10.3990    -3.6780    -0.9690 ho         1 DTA       0.422500
     46 H3           8.7770    -0.0470    -1.5360 h1         1 DTA       0.071700
     47 HO3         10.3060     0.7590    -0.1870 ho         1 DTA       0.414500
     48 H4           8.5750    -1.2780     1.2420 h1         1 DTA       0.093200
     49 H5'1         6.8650     0.6450    -0.4090 h1         1 DTA       0.079950
     50 H5'2         7.7610     0.9800     1.0790 h1         1 DTA       0.079950
     51 H5R1         4.4990     1.5530    -0.5600 h1         1 DTA       0.079950
     52 H5R2         3.0790     0.8920     0.2830 h1         1 DTA       0.079950
     53 H4R          2.5170     3.1580     1.1160 h1         1 DTA       0.093200
     54 H3R          2.8680     2.7150    -1.8630 h1         1 DTA       0.071700
     55 HO3R         0.6810     2.6100    -1.7090 ho         1 DTA       0.414500
     56 H2R          2.4830     5.0310    -2.3170 h1         1 DTA       0.081700
     57 HO2R         0.7670     4.9020    -0.4780 ho         1 DTA       0.422500
     58 H1R          3.8460     6.0320    -0.1240 h2         1 DTA       0.102700
     59 H81          5.4880     7.2350    -1.1960 h5         1 DTA       0.075800
     60 H21          5.6650     1.3780    -3.7690 h5         1 DTA       0.053600
     61 H611         8.5750     5.6680    -4.6030 hn         1 DTA       0.452050
     62 H612         8.7820     4.1520    -5.4020 hn         1 DTA       0.452050
@<TRIPOS>BOND
     1     1     2 1   
     2     1    39 1   
     3     1    40 1   
     4     2     3 ar  
     5     2     7 ar  
     6     3     4 ar  
     7     4     5 ar  
     8     4    41 1   
     9     5     6 ar  
    10     6     7 ar  
    11     6    10 1   
    12     7     8 1   
    13     8     9 2   
    14     9    10 1   
    15     9    42 1   
    16    10    11 1   
    17    11    12 1   
    18    11    13 1   
    19    11    43 1   
    20    12    17 1   
    21    13    14 1   
    22    13    15 1   
    23    13    44 1   
    24    14    45 1   
    25    15    16 1   
    26    15    17 1   
    27    15    46 1   
    28    16    47 1   
    29    17    18 1   
    30    17    48 1   
    31    18    19 1   
    32    18    49 1   
    33    18    50 1   
    34    19    20 1   
    35    20    21 1   
    36    21    22 1   
    37    21    51 1   
    38    21    52 1   
    39    22    23 1   
    40    22    24 1   
    41    22    53 1   
    42    23    28 1   
    43    24    25 1   
    44    24    26 1   
    45    24    54 1   
    46    25    55 1   
    47    26    27 1   
    48    26    28 1   
    49    26    56 1   
    50    27    57 1   
    51    28    29 1   
    52    28    58 1   
    53    29    30 1   
    54    29    33 1   
    55    30    31 2   
    56    30    59 1   
    57    31    32 1   
    58    32    33 ar  
    59    32    37 ar  
    60    33    34 ar  
    61    34    35 ar  
    62    35    36 ar  
    63    35    60 1   
    64    36    37 ar  
    65    37    38 1   
    66    38    61 1   
    67    38    62 1   
@<TRIPOS>SUBSTRUCTURE
     1 DTA         1 TEMP              0 ****  ****    0 ROOT
