@<TRIPOS>MOLECULE
DTA
   62    67     1     0     0
SMALL
No Charge or Current Charge


@<TRIPOS>ATOM
      1 N62          4.0740     0.7880    -5.0080 nv         1 DTA      -1.061900
      2 C62          5.2220     0.2690    -4.4970 ca         1 DTA       0.451900
      3 N12          6.3300     0.5090    -5.2100 nb         1 DTA      -0.300500
      4 C22          7.4700    -0.0360    -4.7320 ca         1 DTA       0.181400
      5 N32          7.5950    -0.8000    -3.6230 nb         1 DTA      -0.241000
      6 C42          6.4660    -1.0320    -2.9220 ca         1 DTA       0.128000
      7 C52          5.2570    -0.5080    -3.3160 ca         1 DTA      -0.100600
      8 N72          4.2190    -0.8620    -2.4610 nc         1 DTA      -0.559600
      9 C82          4.8590    -1.6260    -1.5540 cd         1 DTA       0.415700
     10 N92          6.2390    -1.7720    -1.7830 na         1 DTA      -0.307800
     11 C1           7.1140    -2.7020    -1.0490 c5         1 DTA       0.299300
     12 O4           7.1490    -2.3200     0.3390 os         1 DTA      -0.430500
     13 C2           8.6300    -2.8230    -1.4180 c5         1 DTA       0.121300
     14 O2           9.2500    -4.0040    -0.8850 oh         1 DTA      -0.700500
     15 C3           9.2130    -1.5720    -0.6890 c5         1 DTA       0.120300
     16 O3          10.5890    -1.8080    -0.3220 oh         1 DTA      -0.693000
     17 C4           8.2550    -1.4020     0.5490 c5         1 DTA       0.161300
     18 C5           7.7250     0.0400     0.7240 c3         1 DTA       0.031100
     19 S5           6.4720     0.1810     2.0780 ss         1 DTA      -0.203500
     20 S5R          5.4730     1.9610     1.6200 ss         1 DTA      -0.203500
     21 C5R          4.5140     1.4720     0.1220 c3         1 DTA       0.031100
     22 C4R          3.6160     2.5700    -0.4830 c5         1 DTA       0.161300
     23 O4R          4.2960     3.8460    -0.5460 os         1 DTA      -0.430500
     24 C3R          3.2260     2.2800    -1.9600 c5         1 DTA       0.120300
     25 O3R          2.2430     1.2430    -2.1120 oh         1 DTA      -0.693000
     26 C2R          2.7090     3.6790    -2.3760 c5         1 DTA       0.121300
     27 O2R          1.3940     3.9130    -1.8400 oh         1 DTA      -0.700500
     28 C1R          3.8330     4.5650    -1.7220 c5         1 DTA       0.299300
     29 N91          4.9760     4.8690    -2.5940 na         1 DTA      -0.307800
     30 C81          5.0470     5.9980    -3.4170 cc         1 DTA       0.415700
     31 N71          6.1920     6.0250    -4.1240 nd         1 DTA      -0.559600
     32 C51          6.8560     4.8680    -3.7050 ca         1 DTA      -0.100600
     33 C41          6.1350     4.1560    -2.7790 ca         1 DTA       0.128000
     34 N31          6.6050     3.0090    -2.2440 nb         1 DTA      -0.241000
     35 C21          7.8220     2.6060    -2.6760 ca         1 DTA       0.181400
     36 N11          8.6060     3.2310    -3.5860 nb         1 DTA      -0.300500
     37 C61          8.1150     4.3700    -4.1000 ca         1 DTA       0.451900
     38 N61          8.9000     5.0030    -5.0120 nv         1 DTA      -1.061900
     39 H621         3.2030     0.3860    -4.6770 hn         1 DTA       0.507250
     40 H622         4.0850     1.0900    -5.9770 hn         1 DTA       0.507250
     41 H22          8.3800     0.1540    -5.2990 h5         1 DTA       0.053600
     42 H82          4.3850    -2.1230    -0.7150 h5         1 DTA       0.075800
     43 H1           6.6330    -3.6830    -1.1520 h2         1 DTA       0.102700
     44 H2           8.7910    -2.7760    -2.5030 h1         1 DTA       0.081700
     45 HO2         10.0730    -3.6350    -0.4700 ho         1 DTA       0.521500
     46 H3           9.1400    -0.6950    -1.3490 h1         1 DTA       0.071700
     47 HO3         11.0120    -0.9310    -0.1530 ho         1 DTA       0.513500
     48 H4           8.7610    -1.6960     1.4790 h1         1 DTA       0.093200
     49 H5'1         7.2640     0.3590    -0.2170 h1         1 DTA       0.079950
     50 H5'2         8.5590     0.7190     0.9390 h1         1 DTA       0.079950
     51 H5R1         5.2310     1.1530    -0.6420 h1         1 DTA       0.079950
     52 H5R2         3.8890     0.6060     0.3730 h1         1 DTA       0.079950
     53 H4R          2.7260     2.6880     0.1500 h1         1 DTA       0.093200
     54 H3R          4.1220     2.0350    -2.5450 h1         1 DTA       0.071700
     55 HO3R         2.7600     0.4000    -2.2220 ho         1 DTA       0.513500
     56 H2R          2.7040     3.7890    -3.4700 h1         1 DTA       0.081700
     57 HO2R         0.9640     3.0220    -1.8530 ho         1 DTA       0.521500
     58 H1R          3.4160     5.5350    -1.4230 h2         1 DTA       0.102700
     59 H81          4.2520     6.7340    -3.4610 h5         1 DTA       0.075800
     60 H21          8.2110     1.6840    -2.2470 h5         1 DTA       0.053600
     61 H611         8.4570     5.7350    -5.5610 hn         1 DTA       0.507250
     62 H612         9.6320     4.4680    -5.4710 hn         1 DTA       0.507250
@<TRIPOS>BOND
     1     1     2 1   
     2     1    39 1   
     3     1    40 1   
     4     2     3 ar  
     5     2     7 ar  
     6     3     4 ar  
     7     4     5 ar  
     8     4    41 1   
     9     5     6 ar  
    10     6     7 ar  
    11     6    10 1   
    12     7     8 1   
    13     8     9 2   
    14     9    10 1   
    15     9    42 1   
    16    10    11 1   
    17    11    12 1   
    18    11    13 1   
    19    11    43 1   
    20    12    17 1   
    21    13    14 1   
    22    13    15 1   
    23    13    44 1   
    24    14    45 1   
    25    15    16 1   
    26    15    17 1   
    27    15    46 1   
    28    16    47 1   
    29    17    18 1   
    30    17    48 1   
    31    18    19 1   
    32    18    49 1   
    33    18    50 1   
    34    19    20 1   
    35    20    21 1   
    36    21    22 1   
    37    21    51 1   
    38    21    52 1   
    39    22    23 1   
    40    22    24 1   
    41    22    53 1   
    42    23    28 1   
    43    24    25 1   
    44    24    26 1   
    45    24    54 1   
    46    25    55 1   
    47    26    27 1   
    48    26    28 1   
    49    26    56 1   
    50    27    57 1   
    51    28    29 1   
    52    28    58 1   
    53    29    30 1   
    54    29    33 1   
    55    30    31 2   
    56    30    59 1   
    57    31    32 1   
    58    32    33 ar  
    59    32    37 ar  
    60    33    34 ar  
    61    34    35 ar  
    62    35    36 ar  
    63    35    60 1   
    64    36    37 ar  
    65    37    38 1   
    66    38    61 1   
    67    38    62 1   
@<TRIPOS>SUBSTRUCTURE
     1 DTA         1 TEMP              0 ****  ****    0 ROOT
