@<TRIPOS>MOLECULE
DTB
   32    32     1     0     0
SMALL
bcc


@<TRIPOS>ATOM
      1 CN          -3.6160    -1.1970     0.2970 c          1 DTB       0.785500
      2 O           -3.9640    -2.2590     0.7890 o          1 DTB      -0.662500
      3 N2          -2.6780    -1.0260    -0.6790 ns         1 DTB      -0.565900
      4 CR          -2.3410     0.3800    -0.8450 c5         1 DTB       0.095700
      5 CS          -3.6610     1.0220    -0.3660 c5         1 DTB       0.084700
      6 N1          -4.0970     0.0420     0.6170 ns         1 DTB      -0.560900
      7 CT          -3.5640     2.4250     0.1930 c3         1 DTB      -0.091100
      8 CE          -1.1000     0.7910    -0.0590 c3         1 DTB      -0.104400
      9 CD           0.1670     0.0780    -0.5200 c3         1 DTB      -0.076400
     10 CG           1.4120     0.5750     0.2040 c3         1 DTB      -0.079400
     11 CB           2.6930    -0.1100    -0.2540 c3         1 DTB      -0.054400
     12 CA           3.9240     0.4070     0.4750 c3         1 DTB      -0.203400
     13 C            5.2660    -0.2340     0.0810 c          1 DTB       0.927600
     14 OI1          5.2350    -1.2720    -0.6100 o          1 DTB      -0.847800
     15 OI2          6.2930     0.3350     0.5090 o          1 DTB      -0.847800
     16 HN2         -1.9950    -1.7500    -0.8340 hn         1 DTB       0.330500
     17 HCR         -2.1830     0.6100    -1.9020 h1         1 DTB       0.064700
     18 HCS         -4.3560     1.0310    -1.2160 h1         1 DTB       0.033700
     19 HN1         -5.0210     0.1060     1.0150 hn         1 DTB       0.310500
     20 HCT1        -3.1810     3.1090    -0.5660 hc         1 DTB       0.043367
     21 HCT2        -4.5500     2.7850     0.4890 hc         1 DTB       0.043367
     22 HCT3        -2.9110     2.4730     1.0630 hc         1 DTB       0.043367
     23 HCE1        -0.9560     1.8680    -0.1810 hc         1 DTB       0.050200
     24 HCE2        -1.2570     0.6150     1.0100 hc         1 DTB       0.050200
     25 HCD1         0.0740    -1.0020    -0.3630 hc         1 DTB       0.034700
     26 HCD2         0.2900     0.2220    -1.5990 hc         1 DTB       0.034700
     27 HCG1         1.5040     1.6580     0.0580 hc         1 DTB       0.026200
     28 HCG2         1.2860     0.4280     1.2830 hc         1 DTB       0.026200
     29 HCB1         2.6010    -1.1900    -0.1030 hc         1 DTB       0.038700
     30 HCB2         2.8120     0.0340    -1.3330 hc         1 DTB       0.038700
     31 HCA1         4.0010     1.4920     0.3470 hc         1 DTB       0.014700
     32 HCA2         3.7920     0.2600     1.5540 hc         1 DTB       0.014700
@<TRIPOS>BOND
     1     1     2 2   
     2     1     3 1   
     3     1     6 1   
     4     3     4 1   
     5     3    16 1   
     6     4     5 1   
     7     4     8 1   
     8     4    17 1   
     9     5     6 1   
    10     5     7 1   
    11     5    18 1   
    12     6    19 1   
    13     7    20 1   
    14     7    21 1   
    15     7    22 1   
    16     8     9 1   
    17     8    23 1   
    18     8    24 1   
    19     9    10 1   
    20     9    25 1   
    21     9    26 1   
    22    10    11 1   
    23    10    27 1   
    24    10    28 1   
    25    11    12 1   
    26    11    29 1   
    27    11    30 1   
    28    12    13 1   
    29    12    31 1   
    30    12    32 1   
    31    13    14 1   
    32    13    15 1   
@<TRIPOS>SUBSTRUCTURE
     1 DTB         1 TEMP              0 ****  ****    0 ROOT
