@<TRIPOS>MOLECULE
DTB
   32    32     1     0     0
SMALL
No Charge or Current Charge


@<TRIPOS>ATOM
      1 CN          -3.6840    -1.2110     0.1210 c          1 DTB       0.576000
      2 O           -4.0370    -2.2910     0.5540 o          1 DTB      -0.587000
      3 N2          -2.6390    -1.0000    -0.7110 ns         1 DTB      -0.498900
      4 CR          -2.3440     0.4210    -0.8880 c5         1 DTB       0.095700
      5 CS          -3.7140     1.0590    -0.4110 c5         1 DTB       0.084700
      6 N1          -4.2790    -0.0250     0.3830 ns         1 DTB      -0.493900
      7 CT          -3.6390     2.3980     0.3560 c3         1 DTB      -0.091100
      8 CE          -1.0850     0.8330    -0.0790 c3         1 DTB      -0.104400
      9 CD           0.2220     0.1450    -0.5390 c3         1 DTB      -0.076400
     10 CG           1.4620     0.6140     0.2540 c3         1 DTB      -0.079400
     11 CB           2.7690    -0.0720    -0.2050 c3         1 DTB      -0.054400
     12 CA           4.0140     0.3970     0.5870 c3         1 DTB      -0.203400
     13 C            5.2730    -0.3260     0.0760 c          1 DTB       0.717000
     14 OI1          5.5720    -1.3960     0.5850 o          1 DTB      -0.742500
     15 OI2          5.8920     0.1780    -0.8490 o          1 DTB      -0.742500
     16 HN2         -2.0530    -1.7800    -0.9810 hn         1 DTB       0.330500
     17 HCR         -2.1650     0.6660    -1.9440 h1         1 DTB       0.064700
     18 HCS         -4.3490     1.2280    -1.2920 h1         1 DTB       0.033700
     19 HN1         -5.1100     0.0070     0.9600 hn         1 DTB       0.310500
     20 HCT1        -3.1540     3.1710    -0.2510 hc         1 DTB       0.043367
     21 HCT2        -4.6440     2.7570     0.6080 hc         1 DTB       0.043367
     22 HCT3        -3.0800     2.2980     1.2940 hc         1 DTB       0.043367
     23 HCE1        -0.9410     1.9170    -0.1600 hc         1 DTB       0.050200
     24 HCE2        -1.2400     0.6180     0.9860 hc         1 DTB       0.050200
     25 HCD1         0.1210    -0.9420    -0.4310 hc         1 DTB       0.034700
     26 HCD2         0.3780     0.3490    -1.6060 hc         1 DTB       0.034700
     27 HCG1         1.5690     1.7010     0.1460 hc         1 DTB       0.026200
     28 HCG2         1.3040     0.4110     1.3200 hc         1 DTB       0.026200
     29 HCB1         2.6610    -1.1590    -0.0980 hc         1 DTB       0.038700
     30 HCB2         2.9250     0.1290    -1.2730 hc         1 DTB       0.038700
     31 HCA1         4.0930     1.4770     0.4110 hc         1 DTB       0.014700
     32 HCA2         3.8190     0.1340     1.6350 hc         1 DTB       0.014700
@<TRIPOS>BOND
     1     1     2 2   
     2     1     3 1   
     3     1     6 1   
     4     3     4 1   
     5     3    16 1   
     6     4     5 1   
     7     4     8 1   
     8     4    17 1   
     9     5     6 1   
    10     5     7 1   
    11     5    18 1   
    12     6    19 1   
    13     7    20 1   
    14     7    21 1   
    15     7    22 1   
    16     8     9 1   
    17     8    23 1   
    18     8    24 1   
    19     9    10 1   
    20     9    25 1   
    21     9    26 1   
    22    10    11 1   
    23    10    27 1   
    24    10    28 1   
    25    11    12 1   
    26    11    29 1   
    27    11    30 1   
    28    12    13 1   
    29    12    31 1   
    30    12    32 1   
    31    13    14 1   
    32    13    15 1   
@<TRIPOS>SUBSTRUCTURE
     1 DTB         1 TEMP              0 ****  ****    0 ROOT
