@<TRIPOS>MOLECULE
DTC
   37    40     1     0     0
SMALL
abcg2


@<TRIPOS>ATOM
      1 O5          -2.0050    -0.7700    -1.4300 os         1 DTC      -0.339200
      2 C10         -2.8690    -1.0480    -0.4090 ca         1 DTC       0.182600
      3 C9          -3.1640    -0.1280     0.5920 ca         1 DTC      -0.253600
      4 C8          -2.4640     1.1570     0.6080 c          1 DTC       0.599200
      5 O17         -2.7910     2.0930     1.2990 o          1 DTC      -0.491100
      6 C7          -1.2130     1.2140    -0.2470 c6         1 DTC      -0.284700
      7 C15         -0.0240     0.7140     0.6290 c3         1 DTC      -0.044400
      8 C6          -1.2820     0.3640    -1.4900 c          1 DTC       0.678100
      9 O16         -0.6820     0.5910    -2.4980 o          1 DTC      -0.440000
     10 C1          -4.1140    -0.4600     1.5610 ca         1 DTC      -0.019500
     11 C2          -4.7340    -1.6920     1.5360 ca         1 DTC      -0.146500
     12 C3          -4.4170    -2.6020     0.5300 ca         1 DTC      -0.049500
     13 C4          -3.4900    -2.2860    -0.4500 ca         1 DTC      -0.136500
     14 C5           3.7750    -1.1290     1.4310 ca         1 DTC      -0.019500
     15 C20          3.0530    -0.1780     0.7060 ca         1 DTC      -0.253600
     16 C19          3.0310    -0.2620    -0.6840 ca         1 DTC       0.182600
     17 C18          3.7000    -1.2760    -1.3500 ca         1 DTC      -0.136500
     18 C17          4.3960    -2.2180    -0.6110 ca         1 DTC      -0.049500
     19 C16          4.4400    -2.1480     0.7800 ca         1 DTC      -0.146500
     20 O21          2.4120     0.6730    -1.4640 os         1 DTC      -0.339200
     21 C12          1.7150     1.7000    -0.9360 c          1 DTC       0.678100
     22 O32          1.4690     2.6390    -1.6310 o          1 DTC      -0.440000
     23 C13          1.2640     1.5620     0.4930 c6         1 DTC      -0.284700
     24 C14          2.2990     0.8850     1.3740 c          1 DTC       0.599200
     25 O38          2.4090     1.1600     2.5450 o          1 DTC      -0.491100
     26 HC7         -1.0490     2.2490    -0.5490 hc         1 DTC       0.122200
     27 H151        -0.3030     0.7740     1.6820 hc         1 DTC       0.071700
     28 H152         0.1810    -0.3400     0.4320 hc         1 DTC       0.071700
     29 HC1         -4.3450     0.2570     2.3370 ha         1 DTC       0.136000
     30 HC2         -5.4600    -1.9500     2.2940 ha         1 DTC       0.126500
     31 HC3         -4.9000    -3.5690     0.5050 ha         1 DTC       0.123500
     32 HC4         -3.2570    -2.9870    -1.2400 ha         1 DTC       0.142500
     33 H18          3.6790    -1.3210    -2.4310 ha         1 DTC       0.142500
     34 H17          4.9130    -3.0150    -1.1280 ha         1 DTC       0.123500
     35 H16          4.9880    -2.8890     1.3440 ha         1 DTC       0.126500
     36 H13          1.0560     2.5640     0.8720 hc         1 DTC       0.122200
     37 HC5          3.7920    -1.0650     2.5110 ha         1 DTC       0.136000
@<TRIPOS>BOND
     1     1     2 1   
     2     1     8 1   
     3     2     3 ar  
     4     2    13 ar  
     5     3     4 1   
     6     3    10 ar  
     7     4     5 2   
     8     4     6 1   
     9     6     7 1   
    10     6     8 1   
    11     6    26 1   
    12     7    23 1   
    13     7    27 1   
    14     7    28 1   
    15     8     9 2   
    16    10    11 ar  
    17    10    29 1   
    18    11    12 ar  
    19    11    30 1   
    20    12    13 ar  
    21    12    31 1   
    22    13    32 1   
    23    14    15 ar  
    24    14    19 ar  
    25    14    37 1   
    26    15    16 ar  
    27    15    24 1   
    28    16    17 ar  
    29    16    20 1   
    30    17    18 ar  
    31    17    33 1   
    32    18    19 ar  
    33    18    34 1   
    34    19    35 1   
    35    20    21 1   
    36    21    22 2   
    37    21    23 1   
    38    23    24 1   
    39    23    36 1   
    40    24    25 2   
@<TRIPOS>SUBSTRUCTURE
     1 DTC         1 TEMP              0 ****  ****    0 ROOT
