@<TRIPOS>MOLECULE
DTC
   37    40     1     0     0
SMALL
No Charge or Current Charge


@<TRIPOS>ATOM
      1 O5          -2.0360    -0.3550    -1.6010 os         1 DTC      -0.339200
      2 C10         -2.6800    -0.9300    -0.5340 ca         1 DTC       0.182600
      3 C9          -2.9960    -0.1610     0.5930 ca         1 DTC      -0.253600
      4 C8          -2.5340     1.2500     0.6240 c          1 DTC       0.599200
      5 O17         -3.1270     2.1310     1.2300 o          1 DTC      -0.491100
      6 C7          -1.2960     1.5300    -0.2010 c6         1 DTC      -0.284700
      7 C15         -0.0450     0.9560     0.5600 c3         1 DTC      -0.044400
      8 C6          -1.4330     0.8760    -1.5740 c          1 DTC       0.678100
      9 O16         -1.0880     1.4470    -2.5960 o          1 DTC      -0.440000
     10 C1          -3.7310    -0.7300     1.6520 ca         1 DTC      -0.019500
     11 C2          -4.1300    -2.0770     1.5770 ca         1 DTC      -0.146500
     12 C3          -3.8060    -2.8490     0.4470 ca         1 DTC      -0.049500
     13 C4          -3.0860    -2.2700    -0.6130 ca         1 DTC      -0.136500
     14 C5           3.4300    -1.1790     1.5710 ca         1 DTC      -0.019500
     15 C20          2.8950    -0.1920     0.7190 ca         1 DTC      -0.253600
     16 C19          2.8560    -0.4060    -0.6650 ca         1 DTC       0.182600
     17 C18          3.3420    -1.6040    -1.2100 ca         1 DTC      -0.136500
     18 C17          3.8640    -2.5990    -0.3640 ca         1 DTC      -0.049500
     19 C16          3.9090    -2.3830     1.0250 ca         1 DTC      -0.146500
     20 O21          2.4120     0.5860    -1.5040 os         1 DTC      -0.339200
     21 C12          1.7590     1.7180    -1.0890 c          1 DTC       0.678100
     22 O32          1.6190     2.6890    -1.8150 o          1 DTC      -0.440000
     23 C13          1.3040     1.7360     0.3650 c6         1 DTC      -0.284700
     24 C14          2.3550     1.0900     1.2410 c          1 DTC       0.599200
     25 O38          2.7570     1.6120     2.2720 o          1 DTC      -0.491100
     26 HC7         -1.1690     2.6140    -0.3120 hc         1 DTC       0.122200
     27 H151        -0.2620     0.9620     1.6380 hc         1 DTC       0.071700
     28 H152         0.0860    -0.1080     0.3150 hc         1 DTC       0.071700
     29 HC1         -3.9850    -0.1390     2.5310 ha         1 DTC       0.136000
     30 HC2         -4.6930    -2.5220     2.3950 ha         1 DTC       0.126500
     31 HC3         -4.1200    -3.8890     0.3890 ha         1 DTC       0.123500
     32 HC4         -2.8490    -2.8560    -1.4970 ha         1 DTC       0.142500
     33 H18          3.3220    -1.7570    -2.2860 ha         1 DTC       0.142500
     34 H17          4.2400    -3.5290    -0.7840 ha         1 DTC       0.123500
     35 H16          4.3180    -3.1500     1.6800 ha         1 DTC       0.126500
     36 H13          1.1430     2.7730     0.6850 hc         1 DTC       0.122200
     37 HC5          3.4670    -1.0210     2.6480 ha         1 DTC       0.136000
@<TRIPOS>BOND
     1     1     2 1   
     2     1     8 1   
     3     2     3 ar  
     4     2    13 ar  
     5     3     4 1   
     6     3    10 ar  
     7     4     5 2   
     8     4     6 1   
     9     6     7 1   
    10     6     8 1   
    11     6    26 1   
    12     7    23 1   
    13     7    27 1   
    14     7    28 1   
    15     8     9 2   
    16    10    11 ar  
    17    10    29 1   
    18    11    12 ar  
    19    11    30 1   
    20    12    13 ar  
    21    12    31 1   
    22    13    32 1   
    23    14    15 ar  
    24    14    19 ar  
    25    14    37 1   
    26    15    16 ar  
    27    15    24 1   
    28    16    17 ar  
    29    16    20 1   
    30    17    18 ar  
    31    17    33 1   
    32    18    19 ar  
    33    18    34 1   
    34    19    35 1   
    35    20    21 1   
    36    21    22 2   
    37    21    23 1   
    38    23    24 1   
    39    23    36 1   
    40    24    25 2   
@<TRIPOS>SUBSTRUCTURE
     1 DTC         1 TEMP              0 ****  ****    0 ROOT
