@<TRIPOS>MOLECULE
DTD
   16    16     1     0     0
SMALL
No Charge or Current Charge


@<TRIPOS>ATOM
      1 S1           0.8210     0.2340    -1.8760 ss         1 DTD      -0.218000
      2 C1           1.5160    -0.4430    -0.3050 c6         1 DTD       0.000100
      3 C2           0.8970     0.2120     0.9580 c6         1 DTD       0.179300
      4 O2           1.6190    -0.2210     2.1200 oh         1 DTD      -0.638000
      5 C3          -0.6260    -0.1090     1.1410 c6         1 DTD       0.179300
      6 O3          -1.0910     0.4660     2.3770 oh         1 DTD      -0.638000
      7 C4          -1.4980     0.4120    -0.0340 c6         1 DTD       0.000100
      8 S4          -1.1380    -0.4450    -1.6300 ss         1 DTD      -0.218000
      9 H11          2.5990    -0.2600    -0.3180 h1         1 DTD       0.086700
     10 H12          1.3540    -1.5290    -0.2910 h1         1 DTD       0.086700
     11 H21          1.0010     1.3030     0.8540 h1         1 DTD       0.056700
     12 HO2          1.0320     0.0070     2.8770 ho         1 DTD       0.446000
     13 H31         -0.7390    -1.2040     1.1820 h1         1 DTD       0.056700
     14 HO3         -1.9900     0.1050     2.5450 ho         1 DTD       0.446000
     15 H41         -1.3420     1.4910    -0.1760 h1         1 DTD       0.086700
     16 H42         -2.5610     0.2480     0.1910 h1         1 DTD       0.086700
@<TRIPOS>BOND
     1     1     2 1   
     2     1     8 1   
     3     2     3 1   
     4     2     9 1   
     5     2    10 1   
     6     3     4 1   
     7     3     5 1   
     8     3    11 1   
     9     4    12 1   
    10     5     6 1   
    11     5     7 1   
    12     5    13 1   
    13     6    14 1   
    14     7     8 1   
    15     7    15 1   
    16     7    16 1   
@<TRIPOS>SUBSTRUCTURE
     1 DTD         1 TEMP              0 ****  ****    0 ROOT
