@<TRIPOS>MOLECULE
DTD
   16    16     1     0     0
SMALL
bcc


@<TRIPOS>ATOM
      1 S1           0.9300     0.3690    -1.6940 ss         1 DTD      -0.170100
      2 C1           1.4910    -0.3450    -0.1270 c6         1 DTD      -0.047800
      3 C2           0.7370     0.2090     1.0850 c6         1 DTD       0.156100
      4 O2           1.3020    -0.3190     2.2600 oh         1 DTD      -0.575800
      5 C3          -0.7450    -0.1670     1.1030 c6         1 DTD       0.156100
      6 O3          -1.2850     0.3800     2.2820 oh         1 DTD      -0.575800
      7 C4          -1.5250     0.3680    -0.1010 c6         1 DTD      -0.047800
      8 S4          -0.9950    -0.3650    -1.6700 ss         1 DTD      -0.170100
      9 H11          2.5490    -0.0800    -0.0490 h1         1 DTD       0.086700
     10 H12          1.4170    -1.4330    -0.1770 h1         1 DTD       0.086700
     11 H21          0.8130     1.3070     1.0610 h1         1 DTD       0.056700
     12 HO2          2.2110    -0.0080     2.3260 ho         1 DTD       0.407000
     13 H31         -0.8210    -1.2650     1.1000 h1         1 DTD       0.056700
     14 HO3         -2.1880     0.0600     2.3790 ho         1 DTD       0.407000
     15 H41         -1.4560     1.4550    -0.1660 h1         1 DTD       0.086700
     16 H42         -2.5800     0.1000     0.0020 h1         1 DTD       0.086700
@<TRIPOS>BOND
     1     1     2 1   
     2     1     8 1   
     3     2     3 1   
     4     2     9 1   
     5     2    10 1   
     6     3     4 1   
     7     3     5 1   
     8     3    11 1   
     9     4    12 1   
    10     5     6 1   
    11     5     7 1   
    12     5    13 1   
    13     6    14 1   
    14     7     8 1   
    15     7    15 1   
    16     7    16 1   
@<TRIPOS>SUBSTRUCTURE
     1 DTD         1 TEMP              0 ****  ****    0 ROOT
