@<TRIPOS>MOLECULE
DTE
   26    27     1     0     0
SMALL
abcg2


@<TRIPOS>ATOM
      1 N            8.3390    -9.2350    29.4490 n8         1 DTE      -1.002200
      2 CA           9.5250    -8.7960    28.7340 c3         1 DTE       0.019500
      3 C            9.5990    -7.2870    28.3950 c          1 DTE       0.691000
      4 OXT         10.5700    -6.9420    27.6830 o          1 DTE      -0.736500
      5 CB          10.7820    -9.2620    29.4880 c3         1 DTE       0.012800
      6 CG          10.8370    -8.8390    30.9210 cc         1 DTE      -0.080400
      7 CD2         11.2460    -7.5710    31.4540 ca         1 DTE      -0.078800
      8 CD1         10.4930    -9.6040    31.9990 cd         1 DTE      -0.191100
      9 NE1         10.6640    -8.9020    33.1610 na         1 DTE      -0.227700
     10 CE2         11.1260    -7.6610    32.8600 ca         1 DTE      -0.049200
     11 CZ2         11.4640    -6.5900    33.6810 ca         1 DTE       0.080000
     12 CH2         11.9250    -5.4240    33.1100 ca         1 DTE      -0.086000
     13 CZ3         12.0480    -5.3280    31.7140 ca         1 DTE      -0.164000
     14 CE3         11.7140    -6.3800    30.8850 ca         1 DTE      -0.007000
     15 O            8.6970    -6.5450    28.8250 o          1 DTE      -0.736500
     16 CL          11.2980    -6.7530    35.4000 cl         1 DTE      -0.257000
     17 HN1          8.2940    -8.7280    30.3260 hn         1 DTE       0.385000
     18 HN2          7.5220    -8.9260    28.9370 hn         1 DTE       0.385000
     19 HA           9.5410    -9.3250    27.7740 h1         1 DTE       0.039700
     20 HBC1        10.8220   -10.3530    29.4470 hc         1 DTE       0.038200
     21 HBC2        11.6610    -8.8960    28.9540 hc         1 DTE       0.038200
     22 HD1         10.1410   -10.6240    32.0260 h4         1 DTE       0.206000
     23 HE3         11.8000    -6.2880    29.8100 ha         1 DTE       0.167000
     24 HE1         10.4910    -9.2600    34.0850 hn         1 DTE       0.342000
     25 HH2         12.1940    -4.5840    33.7360 ha         1 DTE       0.106000
     26 HZ3         12.4110    -4.4010    31.2900 ha         1 DTE       0.108000
@<TRIPOS>BOND
     1     1     2 1   
     2     1    17 1   
     3     1    18 1   
     4     2     3 1   
     5     2     5 1   
     6     2    19 1   
     7     3     4 1   
     8     3    15 1   
     9     5     6 1   
    10     5    20 1   
    11     5    21 1   
    12     6     7 1   
    13     6     8 2   
    14     7    10 ar  
    15     7    14 ar  
    16     8     9 1   
    17     8    22 1   
    18     9    10 1   
    19     9    24 1   
    20    10    11 ar  
    21    11    12 ar  
    22    11    16 1   
    23    12    13 ar  
    24    12    25 1   
    25    13    14 ar  
    26    13    26 1   
    27    14    23 1   
@<TRIPOS>SUBSTRUCTURE
     1 DTE         1 TEMP              0 ****  ****    0 ROOT
