@<TRIPOS>MOLECULE
DTE
   26    27     1     0     0
SMALL
No Charge or Current Charge


@<TRIPOS>ATOM
      1 N            8.3410    -9.5620    29.1840 n8         1 DTE      -1.002200
      2 CA           9.5520    -8.7990    28.6960 c3         1 DTE       0.019500
      3 C            9.4150    -7.2220    28.6070 c          1 DTE       0.691000
      4 OXT         10.1130    -6.6300    27.7960 o          1 DTE      -0.736500
      5 CB          10.8220    -9.2060    29.4930 c3         1 DTE       0.012800
      6 CG          10.8170    -8.7940    30.9470 cc         1 DTE      -0.080400
      7 CD2         11.2960    -7.5560    31.5020 ca         1 DTE      -0.078800
      8 CD1         10.3620    -9.5430    32.0290 cd         1 DTE      -0.191100
      9 NE1         10.5310    -8.8060    33.2270 na         1 DTE      -0.227700
     10 CE2         11.1070    -7.6040    32.8560 ca         1 DTE      -0.049200
     11 CZ2         11.4850    -6.5350    33.6850 ca         1 DTE       0.080000
     12 CH2         12.0720    -5.4000    33.0880 ca         1 DTE      -0.086000
     13 CZ3         12.2720    -5.3550    31.6880 ca         1 DTE      -0.164000
     14 CE3         11.8840    -6.4430    30.8770 ca         1 DTE      -0.007000
     15 O            8.5250    -6.6700    29.2440 o          1 DTE      -0.736500
     16 Cl          11.2400    -6.6030    35.4280 cl         1 DTE      -0.257000
     17 HN1          8.1220    -9.2240    30.1290 hn         1 DTE       0.385000
     18 HN2          7.5230    -9.2610    28.6410 hn         1 DTE       0.385000
     19 HA           9.7150    -9.1310    27.6610 h1         1 DTE       0.039700
     20 HBC1        10.9500   -10.2930    29.4270 hc         1 DTE       0.038200
     21 HBC2        11.7000    -8.7760    28.9970 hc         1 DTE       0.038200
     22 HD1          9.9300   -10.5400    32.0290 h4         1 DTE       0.206000
     23 HE3         12.0390    -6.4180    29.8010 ha         1 DTE       0.167000
     24 HE1         10.2880    -9.0980    34.1700 hn         1 DTE       0.342000
     25 HH2         12.3740    -4.5590    33.7080 ha         1 DTE       0.106000
     26 HZ3         12.7290    -4.4780    31.2340 ha         1 DTE       0.108000
@<TRIPOS>BOND
     1     1     2 1   
     2     1    17 1   
     3     1    18 1   
     4     2     3 1   
     5     2     5 1   
     6     2    19 1   
     7     3     4 1   
     8     3    15 1   
     9     5     6 1   
    10     5    20 1   
    11     5    21 1   
    12     6     7 1   
    13     6     8 2   
    14     7    10 ar  
    15     7    14 ar  
    16     8     9 1   
    17     8    22 1   
    18     9    10 1   
    19     9    24 1   
    20    10    11 ar  
    21    11    12 ar  
    22    11    16 1   
    23    12    13 ar  
    24    12    25 1   
    25    13    14 ar  
    26    13    26 1   
    27    14    23 1   
@<TRIPOS>SUBSTRUCTURE
     1 DTE         1 TEMP              0 ****  ****    0 ROOT
