@<TRIPOS>MOLECULE
DTG
   19    18     1     0     0
SMALL
No Charge or Current Charge


@<TRIPOS>ATOM
      1 CA           1.1960     0.6650    -2.4100 c3         1 DTG      -0.190400
      2 CB          -0.2710     0.1600    -2.1790 c3         1 DTG      -0.029000
      3 CG1         -0.6690     0.4620    -0.7080 c3         1 DTG      -0.072433
      4 CG2         -0.3780    -1.3710    -2.4140 c3         1 DTG      -0.072433
      5 CG3         -1.2680     0.8900    -3.1190 c3         1 DTG      -0.072433
      6 C            1.7260     0.4270    -3.8430 c          1 DTG       0.713000
      7 O            1.5610     1.3050    -4.6770 o          1 DTG      -0.744500
      8 OXT          2.3170    -0.6160    -4.0790 o          1 DTG      -0.744500
      9 HA1          1.8170     0.1080    -1.6970 hc         1 DTG       0.016200
     10 HA2          1.1740     1.7440    -2.2070 hc         1 DTG       0.016200
     11 H11         -0.6210     1.5380    -0.5000 hc         1 DTG       0.020033
     12 H12          0.0030    -0.0480    -0.0060 hc         1 DTG       0.020033
     13 H13         -1.6920     0.1240    -0.4990 hc         1 DTG       0.020033
     14 H21         -1.3850    -1.7330    -2.1700 hc         1 DTG       0.020033
     15 H22         -0.1810    -1.6290    -3.4610 hc         1 DTG       0.020033
     16 H23          0.3370    -1.9170    -1.7860 hc         1 DTG       0.020033
     17 H31         -1.1960     1.9780    -3.0000 hc         1 DTG       0.020033
     18 H32         -1.0770     0.6480    -4.1710 hc         1 DTG       0.020033
     19 H33         -2.3010     0.5960    -2.8960 hc         1 DTG       0.020033
@<TRIPOS>BOND
     1     1     2 1   
     2     1     6 1   
     3     1     9 1   
     4     1    10 1   
     5     2     3 1   
     6     2     4 1   
     7     2     5 1   
     8     3    11 1   
     9     3    12 1   
    10     3    13 1   
    11     4    14 1   
    12     4    15 1   
    13     4    16 1   
    14     5    17 1   
    15     5    18 1   
    16     5    19 1   
    17     6     7 1   
    18     6     8 1   
@<TRIPOS>SUBSTRUCTURE
     1 DTG         1 TEMP              0 ****  ****    0 ROOT
