@<TRIPOS>MOLECULE
DTG
   19    18     1     0     0
SMALL
abcg2


@<TRIPOS>ATOM
      1 CA           1.1650     0.6560    -2.4160 c3         1 DTG      -0.190400
      2 CB          -0.2780     0.1600    -2.1880 c3         1 DTG      -0.029000
      3 CG1         -0.6550     0.4520    -0.7330 c3         1 DTG      -0.072433
      4 CG2         -0.3780    -1.3470    -2.4320 c3         1 DTG      -0.072433
      5 CG3         -1.2630     0.8910    -3.1010 c3         1 DTG      -0.072433
      6 C            1.7160     0.3990    -3.8270 c          1 DTG       0.713000
      7 O            1.4450     1.2440    -4.7070 o          1 DTG      -0.744500
      8 OXT          2.3860    -0.6420    -3.9970 o          1 DTG      -0.744500
      9 HA1          1.8080     0.1690    -1.6760 hc         1 DTG       0.016200
     10 HA2          1.1880     1.7310    -2.2030 hc         1 DTG       0.016200
     11 H11         -0.6070     1.5220    -0.5210 hc         1 DTG       0.020033
     12 H12          0.0170    -0.0560    -0.0370 hc         1 DTG       0.020033
     13 H13         -1.6720     0.1160    -0.5160 hc         1 DTG       0.020033
     14 H21         -1.3880    -1.7050    -2.2180 hc         1 DTG       0.020033
     15 H22         -0.1460    -1.6070    -3.4650 hc         1 DTG       0.020033
     16 H23          0.3120    -1.8990    -1.7900 hc         1 DTG       0.020033
     17 H31         -1.1990     1.9730    -2.9600 hc         1 DTG       0.020033
     18 H32         -1.0720     0.6860    -4.1540 hc         1 DTG       0.020033
     19 H33         -2.2890     0.5880    -2.8800 hc         1 DTG       0.020033
@<TRIPOS>BOND
     1     1     2 1   
     2     1     6 1   
     3     1     9 1   
     4     1    10 1   
     5     2     3 1   
     6     2     4 1   
     7     2     5 1   
     8     3    11 1   
     9     3    12 1   
    10     3    13 1   
    11     4    14 1   
    12     4    15 1   
    13     4    16 1   
    14     5    17 1   
    15     5    18 1   
    16     5    19 1   
    17     6     7 1   
    18     6     8 1   
@<TRIPOS>SUBSTRUCTURE
     1 DTG         1 TEMP              0 ****  ****    0 ROOT
