@<TRIPOS>MOLECULE
DTH
   16    15     1     0     0
SMALL
No Charge or Current Charge


@<TRIPOS>ATOM
      1 N            0.3570    -1.8470    -0.2810 n8         1 DTH      -0.978200
      2 CA           0.0450    -0.3890    -0.5690 c3         1 DTH       0.029500
      3 CB           1.1100     0.5720     0.0500 c3         1 DTH       0.137300
      4 CG2          2.4910     0.4660    -0.6350 c3         1 DTH      -0.130100
      5 OG1          1.2800     0.3080     1.4510 oh         1 DTH      -0.641000
      6 C           -1.4100     0.1310    -0.2160 c          1 DTH       0.736000
      7 O           -2.0240    -0.3900     0.7100 o          1 DTH      -0.729500
      8 OXT         -1.9180     0.9600    -0.9620 o          1 DTH      -0.729500
      9 H            1.3650    -1.9890    -0.4040 hn         1 DTH       0.374500
     10 HN2          0.2240    -1.9880     0.7280 hn         1 DTH       0.374500
     11 HA           0.1270    -0.2770    -1.6590 h1         1 DTH       0.040700
     12 HB           0.7560     1.6030    -0.0940 h1         1 DTH       0.050700
     13 HG21         3.1900     1.1970    -0.2110 hc         1 DTH       0.020033
     14 HG22         2.9240    -0.5340    -0.5110 hc         1 DTH       0.020033
     15 HG23         2.4030     0.6710    -1.7090 hc         1 DTH       0.020033
     16 HG1          2.0100     0.8850     1.7630 ho         1 DTH       0.405000
@<TRIPOS>BOND
     1     1     2 1   
     2     1     9 1   
     3     1    10 1   
     4     2     3 1   
     5     2     6 1   
     6     2    11 1   
     7     3     4 1   
     8     3     5 1   
     9     3    12 1   
    10     4    13 1   
    11     4    14 1   
    12     4    15 1   
    13     5    16 1   
    14     6     7 1   
    15     6     8 1   
@<TRIPOS>SUBSTRUCTURE
     1 DTH         1 TEMP              0 ****  ****    0 ROOT
