@<TRIPOS>MOLECULE
DTH
   16    15     1     0     0
SMALL
bcc


@<TRIPOS>ATOM
      1 N            0.3460    -1.7670    -0.3620 n8         1 DTH      -0.867800
      2 CA           0.0700    -0.3630    -0.6060 c3         1 DTH       0.029500
      3 CB           1.1080     0.6240    -0.0530 c3         1 DTH       0.114100
      4 CG2          2.5160     0.3640    -0.5670 c3         1 DTH      -0.130100
      5 OG1          1.0540     0.5460     1.3620 oh         1 DTH      -0.578800
      6 C           -1.3250     0.0420    -0.0720 c          1 DTH       0.946600
      7 O           -1.9250    -0.7630     0.6630 o          1 DTH      -0.834800
      8 OXT         -1.7280     1.1700    -0.4240 o          1 DTH      -0.834800
      9 H            1.2890    -1.9940    -0.6530 hn         1 DTH       0.319300
     10 HN2          0.2950    -1.9530     0.6310 hn         1 DTH       0.319300
     11 HA           0.0590    -0.2090    -1.6920 h1         1 DTH       0.040700
     12 HB           0.8040     1.6220    -0.3920 h1         1 DTH       0.050700
     13 HG21         3.2120     1.1230    -0.2020 hc         1 DTH       0.020033
     14 HG22         2.8960    -0.6080    -0.2450 hc         1 DTH       0.020033
     15 HG23         2.5450     0.3970    -1.6570 hc         1 DTH       0.020033
     16 HG1          1.7130     1.1470     1.7210 ho         1 DTH       0.366000
@<TRIPOS>BOND
     1     1     2 1   
     2     1     9 1   
     3     1    10 1   
     4     2     3 1   
     5     2     6 1   
     6     2    11 1   
     7     3     4 1   
     8     3     5 1   
     9     3    12 1   
    10     4    13 1   
    11     4    14 1   
    12     4    15 1   
    13     5    16 1   
    14     6     7 1   
    15     6     8 1   
@<TRIPOS>SUBSTRUCTURE
     1 DTH         1 TEMP              0 ****  ****    0 ROOT
