@<TRIPOS>MOLECULE
DTI
   15    15     1     0     0
SMALL
abcg2


@<TRIPOS>ATOM
      1 N10          0.5850    -0.6610     0.0400 na         1 DTI       0.057300
      2 C9           0.6440     0.7170    -0.0540 cc         1 DTI      -0.071300
      3 S13         -1.8050     0.0430     0.0040 ss         1 DTI       0.569000
      4 C11         -0.6340    -1.1510     0.0770 cc         1 DTI      -0.215300
      5 C14         -0.5980     1.2520    -0.0820 cd         1 DTI      -0.288000
      6 C1           1.9430     1.4290    -0.1180 c3         1 DTI      -0.053800
      7 C5           1.7780    -1.4980     0.1000 c3         1 DTI       0.024900
      8 H11         -0.8430    -2.2070     0.1490 h5         1 DTI       0.219000
      9 H14         -0.8570     2.2970    -0.1500 h4         1 DTI       0.213000
     10 H13          2.5550     1.2270     0.7610 hc         1 DTI       0.087367
     11 H12          2.5110     1.1350    -1.0010 hc         1 DTI       0.087367
     12 H11A         1.7700     2.5010    -0.1700 hc         1 DTI       0.087367
     13 H53          2.3820    -1.3350    -0.7880 h1         1 DTI       0.095033
     14 H52          2.3520    -1.2460     0.9880 h1         1 DTI       0.095033
     15 H51          1.4790    -2.5390     0.1460 h1         1 DTI       0.095033
@<TRIPOS>BOND
     1     1     2 1   
     2     1     4 2   
     3     1     7 1   
     4     2     5 2   
     5     2     6 1   
     6     3     4 1   
     7     3     5 1   
     8     4     8 1   
     9     5     9 1   
    10     6    10 1   
    11     6    11 1   
    12     6    12 1   
    13     7    13 1   
    14     7    14 1   
    15     7    15 1   
@<TRIPOS>SUBSTRUCTURE
     1 DTI         1 TEMP              0 ****  ****    0 ROOT
