@<TRIPOS>MOLECULE
DTI
   15    15     1     0     0
SMALL
No Charge or Current Charge


@<TRIPOS>ATOM
      1 N10          0.6250    -0.6870     0.0420 na         1 DTI       0.057300
      2 C9           0.6690     0.7100    -0.0540 cc         1 DTI      -0.071300
      3 S13         -1.9000     0.0720     0.0020 ss         1 DTI       0.569000
      4 C11         -0.6790    -1.1580     0.0810 cc         1 DTI      -0.215300
      5 C14         -0.6040     1.2470    -0.0850 cd         1 DTI      -0.288000
      6 C1           1.9570     1.4920    -0.1140 c3         1 DTI      -0.053800
      7 C5           1.8090    -1.5590     0.0950 c3         1 DTI       0.024900
      8 H11         -0.9420    -2.2050     0.1540 h5         1 DTI       0.219000
      9 H14         -0.8760     2.2930    -0.1550 h4         1 DTI       0.213000
     10 H13          2.5630     1.3240     0.7840 hc         1 DTI       0.087367
     11 H12          2.5540     1.2030    -0.9870 hc         1 DTI       0.087367
     12 H11A         1.7630     2.5680    -0.1870 hc         1 DTI       0.087367
     13 H53          2.4060    -1.4240    -0.8140 h1         1 DTI       0.095033
     14 H52          2.4150    -1.3020     0.9720 h1         1 DTI       0.095033
     15 H51          1.5000    -2.6090     0.1690 h1         1 DTI       0.095033
@<TRIPOS>BOND
     1     1     2 1   
     2     1     4 2   
     3     1     7 1   
     4     2     5 2   
     5     2     6 1   
     6     3     4 1   
     7     3     5 1   
     8     4     8 1   
     9     5     9 1   
    10     6    10 1   
    11     6    11 1   
    12     6    12 1   
    13     7    13 1   
    14     7    14 1   
    15     7    15 1   
@<TRIPOS>SUBSTRUCTURE
     1 DTI         1 TEMP              0 ****  ****    0 ROOT
