@<TRIPOS>MOLECULE
DTJ
   80    84     1     0     0
SMALL
bcc


@<TRIPOS>ATOM
      1 C4          10.3770    -3.3830     0.1130 c3         1 DTJ      -0.083433
      2 C14          3.6950     2.4810    -0.1090 ca         1 DTJ       0.082600
      3 C5           8.0970    -2.2780     0.0450 ca         1 DTJ      -0.037300
      4 C6           6.7070    -2.2800    -0.1100 ca         1 DTJ      -0.138000
      5 C7           5.9640    -1.1180    -0.0130 ca         1 DTJ      -0.087500
      6 C8           6.5850     0.1030     0.2500 ca         1 DTJ      -0.158600
      7 C9           7.9650     0.1140     0.4200 ca         1 DTJ      -0.087500
      8 C10          8.7050    -1.0540     0.3110 ca         1 DTJ      -0.138000
      9 C2           8.8730    -3.5840    -0.0710 c3         1 DTJ      -0.004700
     10 O12          6.3260     2.3330     1.0040 o          1 DTJ      -0.585100
     11 N13          4.6240     1.4300    -0.1910 ns         1 DTJ      -0.488100
     12 C15          4.0850     3.8090    -0.2420 ca         1 DTJ      -0.120000
     13 C16          3.1300     4.8110    -0.1830 ca         1 DTJ      -0.108000
     14 C17          1.7910     4.4940    -0.0350 ca         1 DTJ      -0.116000
     15 C18          1.3900     3.1640     0.0750 ca         1 DTJ      -0.083900
     16 C19          2.3470     2.1450     0.0810 ca         1 DTJ      -0.104300
     17 C20          1.9980     0.7040     0.3320 c3         1 DTJ       0.175700
     18 O21          2.1880    -0.0250    -0.8690 oh         1 DTJ      -0.610800
     19 C22         -0.0600     2.8780     0.1680 cc         1 DTJ       0.416200
     20 C23         -0.6830     1.9300    -0.6860 cc         1 DTJ      -0.250600
     21 C24         -2.0230     1.7350    -0.5990 cd         1 DTJ       0.071800
     22 C25         -2.8010     2.5530     0.3260 c          1 DTJ       0.659700
     23 O26         -4.0210     2.5330     0.4110 o          1 DTJ      -0.607500
     24 N27         -2.0460     3.3930     1.1060 n          1 DTJ      -0.184800
     25 N28         -0.7340     3.5710     1.0320 nd         1 DTJ      -0.429300
     26 C29         -2.7440     4.2410     2.0610 c3         1 DTJ       0.095300
     27 N30         -2.7030     0.8890    -1.4480 nu         1 DTJ      -0.745700
     28 C31         -3.6700    -0.0210    -1.0890 ca         1 DTJ       0.699200
     29 C32         -3.8870    -0.4030     0.2410 ca         1 DTJ      -0.282300
     30 C33         -4.8880    -1.3110     0.4980 ca         1 DTJ      -0.035000
     31 C34         -5.6280    -1.8500    -0.5550 ca         1 DTJ      -0.310900
     32 C35         -5.2770    -1.4560    -1.8380 ca         1 DTJ       0.492200
     33 N36         -4.3440    -0.5550    -2.1010 nb         1 DTJ      -0.736000
     34 C37         -6.6510    -2.9170    -0.3670 c          1 DTJ       0.697700
     35 O38         -6.6030    -3.9270    -1.0590 o          1 DTJ      -0.598100
     36 N39         -7.5730    -2.7340     0.6030 n          1 DTJ      -0.475800
     37 C40         -8.5110    -3.7910     0.9460 c6         1 DTJ       0.058000
     38 C41         -9.9230    -3.3850     0.5630 c6         1 DTJ       0.106900
     39 O42        -10.2790    -2.1580     1.1630 os         1 DTJ      -0.398600
     40 C43         -9.3910    -1.1300     0.7910 c6         1 DTJ       0.106900
     41 C44         -7.9530    -1.4500     1.1730 c6         1 DTJ       0.058000
     42 H1          10.6190    -2.9820     1.0990 hc         1 DTJ       0.037144
     43 H2          10.8880    -4.3420     0.0150 hc         1 DTJ       0.037144
     44 H3          10.7980    -2.7140    -0.6390 hc         1 DTJ       0.037144
     45 H4           6.1830    -3.2070    -0.3070 ha         1 DTJ       0.135000
     46 H5           4.8880    -1.1950    -0.1210 ha         1 DTJ       0.139000
     47 H6           8.4730     1.0450     0.6350 ha         1 DTJ       0.139000
     48 H7           9.7770    -0.9880     0.4370 ha         1 DTJ       0.135000
     49 H8           8.9550    -3.5160    -2.2480 hc         1 DTJ       0.037144
     50 H9           9.1980    -5.1220    -1.5630 hc         1 DTJ       0.037144
     51 H10          7.5800    -4.4300    -1.6260 hc         1 DTJ       0.037144
     52 H11          7.3150    -4.7750     0.9100 hc         1 DTJ       0.037144
     53 H12          8.9170    -5.5040     0.9390 hc         1 DTJ       0.037144
     54 H13          8.5460    -4.1520     2.0100 hc         1 DTJ       0.037144
     55 H14          4.3060     0.6180    -0.7000 hn         1 DTJ       0.339500
     56 H15          5.1220     4.0610    -0.4070 ha         1 DTJ       0.158000
     57 H16          3.4310     5.8440    -0.2860 ha         1 DTJ       0.139000
     58 H17          1.0460     5.2780    -0.0310 ha         1 DTJ       0.144000
     59 H18          2.6460     0.3230     1.1310 h1         1 DTJ       0.036700
     60 H19          0.9730     0.6090     0.7000 h1         1 DTJ       0.036700
     61 H20          2.0230    -0.9560    -0.6840 ho         1 DTJ       0.407000
     62 H21         -0.0880     1.3740    -1.4000 ha         1 DTJ       0.166000
     63 H22         -3.3390     3.6380     2.7430 h1         1 DTJ       0.060033
     64 H23         -1.9970     4.7920     2.6220 h1         1 DTJ       0.060033
     65 H24         -3.4000     4.9430     1.5480 h1         1 DTJ       0.060033
     66 H25         -2.3430     0.7880    -2.3860 hn         1 DTJ       0.459800
     67 H26         -3.2670    -0.0350     1.0450 ha         1 DTJ       0.147000
     68 H27         -5.0710    -1.6240     1.5190 ha         1 DTJ       0.142000
     69 H28         -5.7890    -1.8750    -2.6970 h4         1 DTJ       0.035100
     70 H29         -8.2320    -4.7140     0.4450 h1         1 DTJ       0.066700
     71 H30         -8.4550    -3.9620     2.0260 h1         1 DTJ       0.066700
     72 H31        -10.0010    -3.3170    -0.5310 h1         1 DTJ       0.055450
     73 H32        -10.6340    -4.1370     0.9080 h1         1 DTJ       0.055450
     74 H33         -9.4400    -0.9520    -0.2930 h1         1 DTJ       0.055450
     75 H34         -9.7110    -0.2190     1.2980 h1         1 DTJ       0.055450
     76 H35         -7.8470    -1.4910     2.2610 h1         1 DTJ       0.066700
     77 H36         -7.3130    -0.6520     0.8060 h1         1 DTJ       0.066700
     78 C11          5.8460     1.3910     0.3970 c          1 DTJ       0.689700
     79 C3           8.6320    -4.1950    -1.4580 c3         1 DTJ      -0.083433
     80 C1           8.3790    -4.5570     1.0100 c3         1 DTJ      -0.083433
@<TRIPOS>BOND
     1     1     9 1   
     2     1    42 1   
     3     1    43 1   
     4     1    44 1   
     5     2    11 1   
     6     2    12 ar  
     7     2    16 ar  
     8     3     4 ar  
     9     3     8 ar  
    10     3     9 1   
    11     4     5 ar  
    12     4    45 1   
    13     5     6 ar  
    14     5    46 1   
    15     6     7 ar  
    16     6    78 1   
    17     7     8 ar  
    18     7    47 1   
    19     8    48 1   
    20     9    79 1   
    21     9    80 1   
    22    10    78 2   
    23    11    55 1   
    24    11    78 1   
    25    12    13 ar  
    26    12    56 1   
    27    13    14 ar  
    28    13    57 1   
    29    14    15 ar  
    30    14    58 1   
    31    15    16 ar  
    32    15    19 1   
    33    16    17 1   
    34    17    18 1   
    35    17    59 1   
    36    17    60 1   
    37    18    61 1   
    38    19    20 1   
    39    19    25 2   
    40    20    21 2   
    41    20    62 1   
    42    21    22 1   
    43    21    27 1   
    44    22    23 2   
    45    22    24 1   
    46    24    25 1   
    47    24    26 1   
    48    26    63 1   
    49    26    64 1   
    50    26    65 1   
    51    27    28 1   
    52    27    66 1   
    53    28    29 ar  
    54    28    33 ar  
    55    29    30 ar  
    56    29    67 1   
    57    30    31 ar  
    58    30    68 1   
    59    31    32 ar  
    60    31    34 1   
    61    32    33 ar  
    62    32    69 1   
    63    34    35 2   
    64    34    36 1   
    65    36    37 1   
    66    36    41 1   
    67    37    38 1   
    68    37    70 1   
    69    37    71 1   
    70    38    39 1   
    71    38    72 1   
    72    38    73 1   
    73    39    40 1   
    74    40    41 1   
    75    40    74 1   
    76    40    75 1   
    77    41    76 1   
    78    41    77 1   
    79    49    79 1   
    80    50    79 1   
    81    51    79 1   
    82    52    80 1   
    83    53    80 1   
    84    54    80 1   
@<TRIPOS>SUBSTRUCTURE
     1 DTJ         1 TEMP              0 ****  ****    0 ROOT
