@<TRIPOS>MOLECULE
DTJ
   80    84     1     0     0
SMALL
No Charge or Current Charge


@<TRIPOS>ATOM
      1 C4          10.3330    -3.7010     0.0770 c3         1 DTJ      -0.083433
      2 C14          3.8270     2.6380     0.0360 ca         1 DTJ      -0.010000
      3 C5           8.1350    -2.3380    -0.0960 ca         1 DTJ      -0.037300
      4 C6           6.7520    -2.2040    -0.3550 ca         1 DTJ      -0.120000
      5 C7           6.0980    -0.9670    -0.2320 ca         1 DTJ      -0.069500
      6 C8           6.8100     0.1910     0.1590 ca         1 DTJ      -0.158600
      7 C9           8.1920     0.0630     0.4170 ca         1 DTJ      -0.069500
      8 C10          8.8430    -1.1760     0.2930 ca         1 DTJ      -0.120000
      9 C2           8.8130    -3.7270    -0.2460 c3         1 DTJ      -0.004700
     10 O12          6.7810     2.5410     0.6320 o          1 DTJ      -0.585100
     11 N13          4.7740     1.5750     0.0620 ns         1 DTJ      -0.162000
     12 C15          4.2350     3.9720    -0.1580 ca         1 DTJ      -0.102000
     13 C16          3.2930     5.0040    -0.1640 ca         1 DTJ      -0.090000
     14 C17          1.9320     4.7120    -0.0280 ca         1 DTJ      -0.098000
     15 C18          1.4700     3.3780     0.0920 ca         1 DTJ      -0.083900
     16 C19          2.4450     2.3310     0.1820 ca         1 DTJ      -0.104300
     17 C20          2.0750     0.8910     0.5830 c3         1 DTJ       0.198900
     18 O21          2.1740     0.0070    -0.5410 oh         1 DTJ      -0.673000
     19 C22          0.0020     3.1690     0.1820 cc         1 DTJ       0.416200
     20 C23         -0.6100     2.0080    -0.4120 cc         1 DTJ      -0.300600
     21 C24         -1.9550     1.7720    -0.2800 cd         1 DTJ       0.071800
     22 C25         -2.8110     2.7640     0.4640 c          1 DTJ       0.517200
     23 O26         -4.0300     2.6820     0.5950 o          1 DTJ      -0.532000
     24 N27         -2.0600     3.8480     0.9890 n          1 DTJ      -0.117800
     25 N28         -0.6840     4.0840     0.8780 nd         1 DTJ      -0.429300
     26 C29         -2.7820     4.8900     1.7510 c3         1 DTJ       0.095300
     27 N30         -2.4840     0.6440    -0.8930 nu         1 DTJ      -0.800900
     28 C31         -3.5410    -0.1870    -0.6210 ca         1 DTJ       0.633900
     29 C32         -4.1320    -0.3340     0.6400 ca         1 DTJ      -0.199000
     30 C33         -5.1780    -1.2540     0.7900 ca         1 DTJ      -0.017000
     31 C34         -5.5800    -1.9900    -0.3440 ca         1 DTJ      -0.245600
     32 C35         -4.8820    -1.8000    -1.5480 ca         1 DTJ       0.426900
     33 N36         -3.8730    -0.9100    -1.6900 nb         1 DTJ      -0.736000
     34 C37         -6.6650    -3.0240    -0.3050 c          1 DTJ       0.630700
     35 O38         -6.6050    -4.0060    -1.0320 o          1 DTJ      -0.598100
     36 N39         -7.6940    -2.8930     0.6560 n          1 DTJ      -0.408800
     37 C40         -8.6200    -4.0290     0.9550 c6         1 DTJ       0.058000
     38 C41        -10.0320    -3.7980     0.3610 c6         1 DTJ       0.130100
     39 O42        -10.5520    -2.5290     0.8140 os         1 DTJ      -0.445000
     40 C43         -9.7280    -1.4090     0.4210 c6         1 DTJ       0.130100
     41 C44         -8.2940    -1.5630     0.9970 c6         1 DTJ       0.058000
     42 H1          10.5130    -3.3810     1.1100 hc         1 DTJ       0.037144
     43 H2          10.7750    -4.6990    -0.0400 hc         1 DTJ       0.037144
     44 H3          10.8700    -3.0240    -0.5990 hc         1 DTJ       0.037144
     45 H4           6.1660    -3.0670    -0.6590 ha         1 DTJ       0.117000
     46 H5           5.0330    -0.9310    -0.4490 ha         1 DTJ       0.121000
     47 H6           8.7750     0.9310     0.7190 ha         1 DTJ       0.121000
     48 H7           9.9060    -1.2050     0.5070 ha         1 DTJ       0.117000
     49 H8           9.0810    -3.5080    -2.4130 hc         1 DTJ       0.037144
     50 H9           9.1420    -5.1910    -1.8530 hc         1 DTJ       0.037144
     51 H10          7.5880    -4.3560    -1.9710 hc         1 DTJ       0.037144
     52 H11          7.0750    -4.8720     0.4880 hc         1 DTJ       0.037144
     53 H12          8.6170    -5.7190     0.6640 hc         1 DTJ       0.037144
     54 H13          8.2110    -4.3830     1.7590 hc         1 DTJ       0.037144
     55 H14          4.3710     0.6740    -0.1560 hn         1 DTJ       0.173000
     56 H15          5.2810     4.2280    -0.3010 ha         1 DTJ       0.140000
     57 H16          3.6170     6.0350    -0.2940 ha         1 DTJ       0.121000
     58 H17          1.2250     5.5380    -0.0680 ha         1 DTJ       0.126000
     59 H18          2.7560     0.5600     1.3780 h1         1 DTJ       0.036700
     60 H19          1.0730     0.8520     1.0280 h1         1 DTJ       0.036700
     61 H20          1.8590    -0.8740    -0.2390 ho         1 DTJ       0.446000
     62 H21          0.0100     1.3400    -0.9940 ha         1 DTJ       0.216000
     63 H22         -3.2930     4.4330     2.6070 h1         1 DTJ       0.060033
     64 H23         -2.0870     5.6540     2.1220 h1         1 DTJ       0.060033
     65 H24         -3.5250     5.3710     1.1030 h1         1 DTJ       0.060033
     66 H25         -2.0320     0.3570    -1.7560 hn         1 DTJ       0.515000
     67 H26         -3.7740     0.2370     1.4890 ha         1 DTJ       0.129000
     68 H27         -5.6400    -1.4040     1.7640 ha         1 DTJ       0.124000
     69 H28         -5.1400    -2.3680    -2.4410 h4         1 DTJ       0.035100
     70 H29         -8.2140    -4.9770     0.5750 h1         1 DTJ       0.066700
     71 H30         -8.7060    -4.1360     2.0460 h1         1 DTJ       0.066700
     72 H31         -9.9870    -3.8040    -0.7380 h1         1 DTJ       0.055450
     73 H32        -10.7110    -4.6010     0.6810 h1         1 DTJ       0.055450
     74 H33         -9.6890    -1.3570    -0.6770 h1         1 DTJ       0.055450
     75 H34        -10.1830    -0.4790     0.7910 h1         1 DTJ       0.055450
     76 H35         -8.3280    -1.4530     2.0900 h1         1 DTJ       0.066700
     77 H36         -7.6850    -0.7400     0.6020 h1         1 DTJ       0.066700
     78 C11          6.1410     1.5470     0.3040 c          1 DTJ       0.622700
     79 C3           8.6440    -4.2250    -1.7070 c3         1 DTJ      -0.083433
     80 C1           8.1370    -4.7350     0.7230 c3         1 DTJ      -0.083433
@<TRIPOS>BOND
     1     1     9 1   
     2     1    42 1   
     3     1    43 1   
     4     1    44 1   
     5     2    11 1   
     6     2    12 ar  
     7     2    16 ar  
     8     3     4 ar  
     9     3     8 ar  
    10     3     9 1   
    11     4     5 ar  
    12     4    45 1   
    13     5     6 ar  
    14     5    46 1   
    15     6     7 ar  
    16     6    78 1   
    17     7     8 ar  
    18     7    47 1   
    19     8    48 1   
    20     9    79 1   
    21     9    80 1   
    22    10    78 2   
    23    11    55 1   
    24    11    78 1   
    25    12    13 ar  
    26    12    56 1   
    27    13    14 ar  
    28    13    57 1   
    29    14    15 ar  
    30    14    58 1   
    31    15    16 ar  
    32    15    19 1   
    33    16    17 1   
    34    17    18 1   
    35    17    59 1   
    36    17    60 1   
    37    18    61 1   
    38    19    20 1   
    39    19    25 2   
    40    20    21 2   
    41    20    62 1   
    42    21    22 1   
    43    21    27 1   
    44    22    23 2   
    45    22    24 1   
    46    24    25 1   
    47    24    26 1   
    48    26    63 1   
    49    26    64 1   
    50    26    65 1   
    51    27    28 1   
    52    27    66 1   
    53    28    29 ar  
    54    28    33 ar  
    55    29    30 ar  
    56    29    67 1   
    57    30    31 ar  
    58    30    68 1   
    59    31    32 ar  
    60    31    34 1   
    61    32    33 ar  
    62    32    69 1   
    63    34    35 2   
    64    34    36 1   
    65    36    37 1   
    66    36    41 1   
    67    37    38 1   
    68    37    70 1   
    69    37    71 1   
    70    38    39 1   
    71    38    72 1   
    72    38    73 1   
    73    39    40 1   
    74    40    41 1   
    75    40    74 1   
    76    40    75 1   
    77    41    76 1   
    78    41    77 1   
    79    49    79 1   
    80    50    79 1   
    81    51    79 1   
    82    52    80 1   
    83    53    80 1   
    84    54    80 1   
@<TRIPOS>SUBSTRUCTURE
     1 DTJ         1 TEMP              0 ****  ****    0 ROOT
