@<TRIPOS>MOLECULE
DTK
   48    49     1     0     0
SMALL
No Charge or Current Charge


@<TRIPOS>ATOM
      1 O11         -2.2730    -2.3240    -0.9950 oh         1 DTK      -0.711000
      2 C11         -2.3340    -1.3300     0.0440 c6         1 DTK       0.145300
      3 C12         -3.5720    -0.3980    -0.1630 c6         1 DTK       0.140300
      4 C13         -4.9260    -1.1840    -0.1090 c3         1 DTK       0.167600
      5 O13         -6.0860    -0.3400    -0.2510 oh         1 DTK      -0.706000
      6 O12         -3.6050     0.6370     0.8570 os         1 DTK      -0.468000
      7 C10         -1.0210    -0.4840     0.0750 c6         1 DTK      -0.053700
      8 C9          -1.1710     0.6830     1.1000 c6         1 DTK      -0.098400
      9 C8          -2.4590     1.5110     0.8720 c6         1 DTK       0.382300
     10 O8          -2.3850     2.2400    -0.3670 os         1 DTK      -0.477000
     11 CM          -3.4490     3.1740    -0.6180 c3         1 DTK       0.146900
     12 C7           0.2470    -1.3610     0.3690 c3         1 DTK      -0.061400
     13 C1           1.6150    -0.6110     0.3780 c6         1 DTK       0.179300
     14 C2           2.8330    -1.5440     0.6980 c6         1 DTK       0.139300
     15 O2           2.9260    -2.6370    -0.2480 oh         1 DTK      -0.702000
     16 C3           4.1450    -0.6920     0.6630 c6         1 DTK       0.149300
     17 O3           4.2270     0.2160     1.7700 oh         1 DTK      -0.664000
     18 C4           4.2590     0.1160    -0.6740 c6         1 DTK       0.106300
     19 O4           5.3980     1.0080    -0.6090 oh         1 DTK      -0.731000
     20 C5           2.9330     0.8800    -1.0450 c6         1 DTK       0.144300
     21 O5           1.7850     0.0050    -0.9250 os         1 DTK      -0.434000
     22 C6           2.6460     2.1970    -0.2590 c3         1 DTK      -0.120100
     23 H1          -1.6640    -3.0320    -0.6840 ho         1 DTK       0.500000
     24 H2          -2.4490    -1.8260     1.0200 h1         1 DTK       0.031700
     25 H3          -3.5000     0.0760    -1.1530 h1         1 DTK       0.074700
     26 H4          -4.9210    -1.9380    -0.9070 h1         1 DTK       0.021200
     27 H5          -4.9700    -1.7220     0.8470 h1         1 DTK       0.021200
     28 H6          -6.8750    -0.9170    -0.1310 ho         1 DTK       0.500000
     29 H7          -0.8770    -0.0470    -0.9240 hc         1 DTK       0.093700
     30 H8          -1.1830     0.2840     2.1230 hc         1 DTK       0.057700
     31 H9          -0.3120     1.3630     1.0420 hc         1 DTK       0.057700
     32 H10         -2.5640     2.2280     1.7020 h2         1 DTK       0.063700
     33 H11         -4.4180     2.6610    -0.6750 h1         1 DTK       0.034367
     34 H12         -3.5020     3.9290     0.1780 h1         1 DTK       0.034367
     35 H13         -3.2840     3.6930    -1.5700 h1         1 DTK       0.034367
     36 H14          0.1170    -1.8610     1.3370 hc         1 DTK       0.058700
     37 H15          0.3060    -2.1660    -0.3720 hc         1 DTK       0.058700
     38 H16          1.5620     0.1660     1.1520 h1         1 DTK       0.050700
     39 H17          2.7040    -1.9440     1.7150 h1         1 DTK       0.052700
     40 H18          3.5480    -3.3000     0.1330 ho         1 DTK       0.499000
     41 H19          5.0010    -1.3820     0.7120 h1         1 DTK       0.038700
     42 H20          4.8190     0.9270     1.4280 ho         1 DTK       0.466000
     43 H21          4.4260    -0.6240    -1.4710 h1         1 DTK       0.058700
     44 H22          5.6120     1.2790    -1.5340 ho         1 DTK       0.513000
     45 H23          3.0050     1.1640    -2.1060 h1         1 DTK       0.064700
     46 H24          3.4050     2.9560    -0.4800 hc         1 DTK       0.047033
     47 H25          1.6760     2.6180    -0.5520 hc         1 DTK       0.047033
     48 H26          2.6310     2.0600     0.8260 hc         1 DTK       0.047033
@<TRIPOS>BOND
     1     1     2 1   
     2     1    23 1   
     3     2     3 1   
     4     2     7 1   
     5     2    24 1   
     6     3     4 1   
     7     3     6 1   
     8     3    25 1   
     9     4     5 1   
    10     4    26 1   
    11     4    27 1   
    12     5    28 1   
    13     6     9 1   
    14     7     8 1   
    15     7    12 1   
    16     7    29 1   
    17     8     9 1   
    18     8    30 1   
    19     8    31 1   
    20     9    10 1   
    21     9    32 1   
    22    10    11 1   
    23    11    33 1   
    24    11    34 1   
    25    11    35 1   
    26    12    13 1   
    27    12    36 1   
    28    12    37 1   
    29    13    14 1   
    30    13    21 1   
    31    13    38 1   
    32    14    15 1   
    33    14    16 1   
    34    14    39 1   
    35    15    40 1   
    36    16    17 1   
    37    16    18 1   
    38    16    41 1   
    39    17    42 1   
    40    18    19 1   
    41    18    20 1   
    42    18    43 1   
    43    19    44 1   
    44    20    21 1   
    45    20    22 1   
    46    20    45 1   
    47    22    46 1   
    48    22    47 1   
    49    22    48 1   
@<TRIPOS>SUBSTRUCTURE
     1 DTK         1 TEMP              0 ****  ****    0 ROOT
