@<TRIPOS>MOLECULE
DTK
   48    49     1     0     0
SMALL
abcg2


@<TRIPOS>ATOM
      1 O11         -2.1550    -2.2480    -1.0160 oh         1 DTK      -0.711000
      2 C11         -2.2340    -1.3020     0.0310 c6         1 DTK       0.145300
      3 C12         -3.4800    -0.4230    -0.1400 c6         1 DTK       0.140300
      4 C13         -4.7600    -1.2170     0.0130 c3         1 DTK       0.167600
      5 O13         -5.8580    -0.3790    -0.2650 oh         1 DTK      -0.706000
      6 O12         -3.5110     0.6010     0.8390 os         1 DTK      -0.468000
      7 C10         -0.9630    -0.4500     0.0140 c6         1 DTK      -0.053700
      8 C9          -1.1120     0.6980     1.0120 c6         1 DTK      -0.098400
      9 C8          -2.4080     1.4630     0.8240 c6         1 DTK       0.382300
     10 O8          -2.3220     2.1900    -0.3640 os         1 DTK      -0.477000
     11 CM          -3.4160     3.0500    -0.5990 c3         1 DTK       0.146900
     12 C7           0.2610    -1.3190     0.3100 c3         1 DTK      -0.061400
     13 C1           1.5800    -0.5650     0.3360 c6         1 DTK       0.179300
     14 C2           2.7660    -1.4550     0.6900 c6         1 DTK       0.139300
     15 O2           2.8180    -2.5310    -0.2180 oh         1 DTK      -0.702000
     16 C3           4.0660    -0.6440     0.6380 c6         1 DTK       0.149300
     17 O3           4.0800     0.2100     1.7570 oh         1 DTK      -0.664000
     18 C4           4.1580     0.1060    -0.6880 c6         1 DTK       0.106300
     19 O4           5.3100     0.9150    -0.6330 oh         1 DTK      -0.731000
     20 C5           2.8850     0.9060    -1.0150 c6         1 DTK       0.144300
     21 O5           1.7650     0.0410    -0.9280 os         1 DTK      -0.434000
     22 C6           2.6910     2.2000    -0.2360 c3         1 DTK      -0.120100
     23 H1          -2.6200    -3.0470    -0.7540 ho         1 DTK       0.500000
     24 H2          -2.2960    -1.8060     1.0080 h1         1 DTK       0.031700
     25 H3          -3.4550     0.0080    -1.1520 h1         1 DTK       0.074700
     26 H4          -4.7290    -2.0690    -0.6750 h1         1 DTK       0.021200
     27 H5          -4.8080    -1.6280     1.0320 h1         1 DTK       0.021200
     28 H6          -6.6580    -0.9060    -0.1920 ho         1 DTK       0.500000
     29 H7          -0.8650    -0.0270    -0.9920 hc         1 DTK       0.093700
     30 H8          -1.1010     0.3020     2.0330 hc         1 DTK       0.057700
     31 H9          -0.2760     1.3950     0.9370 hc         1 DTK       0.057700
     32 H10         -2.5760     2.1450     1.6700 h2         1 DTK       0.063700
     33 H11         -4.3500     2.5070    -0.7660 h1         1 DTK       0.034367
     34 H12         -3.5690     3.7470     0.2330 h1         1 DTK       0.034367
     35 H13         -3.1890     3.6280    -1.4930 h1         1 DTK       0.034367
     36 H14          0.1330    -1.7890     1.2920 hc         1 DTK       0.058700
     37 H15          0.3140    -2.1290    -0.4190 hc         1 DTK       0.058700
     38 H16          1.5250     0.1970     1.1250 h1         1 DTK       0.050700
     39 H17          2.6260    -1.8120     1.7210 h1         1 DTK       0.052700
     40 H18          3.4910    -3.1480     0.0850 ho         1 DTK       0.499000
     41 H19          4.9150    -1.3460     0.6880 h1         1 DTK       0.038700
     42 H20          4.8100     0.8290     1.6550 ho         1 DTK       0.466000
     43 H21          4.2590    -0.6580    -1.4700 h1         1 DTK       0.058700
     44 H22          5.4210     1.3600    -1.4790 ho         1 DTK       0.513000
     45 H23          2.9410     1.1750    -2.0760 h1         1 DTK       0.064700
     46 H24          3.5470     2.8590    -0.3730 hc         1 DTK       0.047033
     47 H25          1.8110     2.7250    -0.6120 hc         1 DTK       0.047033
     48 H26          2.5640     2.0470     0.8340 hc         1 DTK       0.047033
@<TRIPOS>BOND
     1     1     2 1   
     2     1    23 1   
     3     2     3 1   
     4     2     7 1   
     5     2    24 1   
     6     3     4 1   
     7     3     6 1   
     8     3    25 1   
     9     4     5 1   
    10     4    26 1   
    11     4    27 1   
    12     5    28 1   
    13     6     9 1   
    14     7     8 1   
    15     7    12 1   
    16     7    29 1   
    17     8     9 1   
    18     8    30 1   
    19     8    31 1   
    20     9    10 1   
    21     9    32 1   
    22    10    11 1   
    23    11    33 1   
    24    11    34 1   
    25    11    35 1   
    26    12    13 1   
    27    12    36 1   
    28    12    37 1   
    29    13    14 1   
    30    13    21 1   
    31    13    38 1   
    32    14    15 1   
    33    14    16 1   
    34    14    39 1   
    35    15    40 1   
    36    16    17 1   
    37    16    18 1   
    38    16    41 1   
    39    17    42 1   
    40    18    19 1   
    41    18    20 1   
    42    18    43 1   
    43    19    44 1   
    44    20    21 1   
    45    20    22 1   
    46    20    45 1   
    47    22    46 1   
    48    22    47 1   
    49    22    48 1   
@<TRIPOS>SUBSTRUCTURE
     1 DTK         1 TEMP              0 ****  ****    0 ROOT
