@<TRIPOS>MOLECULE
DTL
   18    17     1     0     0
SMALL
No Charge or Current Charge


@<TRIPOS>ATOM
      1 C1           1.8950    -0.6510    -0.2170 c3         1 DTL       0.132100
      2 C2           0.7150     0.3580    -0.1870 c3         1 DTL       0.134800
      3 C3          -0.6890    -0.3340    -0.2040 c3         1 DTL       0.134800
      4 C4          -1.8680     0.6760    -0.2480 c3         1 DTL       0.132100
      5 O1           3.1420     0.0590    -0.0800 oh         1 DTL      -0.712500
      6 O2           0.8920     1.2100     0.9630 oh         1 DTL      -0.709000
      7 O3          -0.8880    -1.1950     0.9360 oh         1 DTL      -0.709000
      8 O4          -3.1180    -0.0350    -0.1400 oh         1 DTL      -0.712500
      9 H1C1         1.7820    -1.3800     0.5970 h1         1 DTL       0.030700
     10 H1C2         1.8690    -1.2040    -1.1660 h1         1 DTL       0.030700
     11 H2           0.7890     0.9610    -1.1040 h1         1 DTL       0.086700
     12 H3          -0.7450    -0.9290    -1.1270 h1         1 DTL       0.086700
     13 H4C1        -1.7710     1.3980     0.5750 h1         1 DTL       0.030700
     14 H4C2        -1.8240     1.2370    -1.1910 h1         1 DTL       0.030700
     15 H1           3.8670    -0.6020    -0.1870 ho         1 DTL       0.505000
     16 HA           1.8730     1.2170     1.0860 ho         1 DTL       0.501500
     17 HB          -1.8720    -1.2030     1.0390 ho         1 DTL       0.501500
     18 H4          -3.8400     0.6280    -0.2560 ho         1 DTL       0.505000
@<TRIPOS>BOND
     1     1     2 1   
     2     1     5 1   
     3     1     9 1   
     4     1    10 1   
     5     2     3 1   
     6     2     6 1   
     7     2    11 1   
     8     3     4 1   
     9     3     7 1   
    10     3    12 1   
    11     4     8 1   
    12     4    13 1   
    13     4    14 1   
    14     5    15 1   
    15     6    16 1   
    16     7    17 1   
    17     8    18 1   
@<TRIPOS>SUBSTRUCTURE
     1 DTL         1 TEMP              0 ****  ****    0 ROOT
