@<TRIPOS>MOLECULE
DTL
   18    17     1     0     0
SMALL
bcc


@<TRIPOS>ATOM
      1 C1           1.8400    -0.6010    -0.3010 c3         1 DTL       0.108900
      2 C2           0.6830     0.3780    -0.2030 c3         1 DTL       0.111600
      3 C3          -0.6650    -0.3540    -0.2160 c3         1 DTL       0.111600
      4 C4          -1.8200     0.6290    -0.3050 c3         1 DTL       0.108900
      5 O1           3.0390     0.1240    -0.4380 oh         1 DTL      -0.590300
      6 O2           0.8070     1.2340     0.9150 oh         1 DTL      -0.586800
      7 O3          -0.8020    -1.2320     0.8820 oh         1 DTL      -0.586800
      8 O4          -3.0190    -0.0910    -0.4650 oh         1 DTL      -0.590300
      9 H1C1         1.8530    -1.2380     0.5940 h1         1 DTL       0.030700
     10 H1C2         1.6660    -1.2640    -1.1590 h1         1 DTL       0.030700
     11 H2           0.7120     1.0280    -1.0850 h1         1 DTL       0.086700
     12 H3          -0.6860    -0.9870    -1.1110 h1         1 DTL       0.086700
     13 H4C1        -1.8380     1.2500     0.6000 h1         1 DTL       0.030700
     14 H4C2        -1.6380     1.3070    -1.1500 h1         1 DTL       0.030700
     15 H1           3.7700    -0.4990    -0.4100 ho         1 DTL       0.406000
     16 HA           1.0480     0.7080     1.6850 ho         1 DTL       0.402500
     17 HB          -0.9900    -0.7120     1.6710 ho         1 DTL       0.402500
     18 H4          -3.7500     0.5320    -0.4140 ho         1 DTL       0.406000
@<TRIPOS>BOND
     1     1     2 1   
     2     1     5 1   
     3     1     9 1   
     4     1    10 1   
     5     2     3 1   
     6     2     6 1   
     7     2    11 1   
     8     3     4 1   
     9     3     7 1   
    10     3    12 1   
    11     4     8 1   
    12     4    13 1   
    13     4    14 1   
    14     5    15 1   
    15     6    16 1   
    16     7    17 1   
    17     8    18 1   
@<TRIPOS>SUBSTRUCTURE
     1 DTL         1 TEMP              0 ****  ****    0 ROOT
