@<TRIPOS>MOLECULE
DTM
   49    51     1     0     0
SMALL
abcg2


@<TRIPOS>ATOM
      1 C2B          1.3690     0.4670     4.7110 ca         1 DTM       0.430900
      2 C4B         -0.2970     1.3570     3.4280 ca         1 DTM       0.448900
      3 C4A         -0.4260     0.0930     2.7470 ca         1 DTM      -0.254000
      4 C5B         -1.3130    -0.1670     1.6940 ca         1 DTM      -0.073000
      5 C6B         -1.3470    -1.4220     1.1240 ca         1 DTM       0.177000
      6 C7          -0.4660    -2.3800     1.6760 ca         1 DTM       0.117900
      7 C8A          0.4370    -0.9240     3.1930 ca         1 DTM       0.127000
      8 C9          -1.5880    -2.3680    -1.1000 c3         1 DTM       0.237100
      9 C1          -0.7950    -1.3630    -1.8990 ca         1 DTM      -0.058300
     10 C2           0.5240    -1.0950    -1.5500 ca         1 DTM      -0.216500
     11 C3           1.2380    -0.1100    -2.2290 ca         1 DTM       0.156100
     12 C4           0.6340     0.5930    -3.2750 ca         1 DTM       0.028100
     13 C5          -0.6910     0.3190    -3.6230 ca         1 DTM       0.156100
     14 C6          -1.4010    -0.6640    -2.9360 ca         1 DTM      -0.216500
     15 C31          3.1580    -0.4140    -0.8780 c3         1 DTM       0.143900
     16 C41          1.2580     2.8390    -3.4200 c3         1 DTM       0.148900
     17 C51         -2.5280     0.8330    -5.0280 c3         1 DTM       0.143900
     18 CN          -3.3030    -0.8910    -0.1950 c3         1 DTM       0.176100
     19 N1           1.3340    -0.7390     4.1800 nb         1 DTM      -0.270000
     20 N2           2.2890     0.7070     5.6680 nv         1 DTM      -1.062900
     21 N3           0.5910     1.5200     4.3840 nb         1 DTM      -0.347000
     22 N4          -1.0680     2.3970     3.1060 nv         1 DTM      -1.080900
     23 N8           0.3860    -2.1530     2.6410 nb         1 DTM      -0.131000
     24 N9          -2.2120    -1.7960     0.0920 nh         1 DTM      -0.766400
     25 O3           2.5110     0.2270    -1.9590 os         1 DTM      -0.323600
     26 O4           1.3410     1.5280    -3.9640 os         1 DTM      -0.327100
     27 O5          -1.1880     1.0510    -4.6360 os         1 DTM      -0.323600
     28 H5          -1.9660     0.6120     1.3230 ha         1 DTM       0.108000
     29 H7          -0.4810    -3.3950     1.2890 h4         1 DTM       0.024100
     30 HC91        -2.3850    -2.7940    -1.7120 h1         1 DTM       0.062700
     31 HC92        -0.9470    -3.2020    -0.8090 h1         1 DTM       0.062700
     32 H2           0.9860    -1.6630    -0.7530 ha         1 DTM       0.122000
     33 H6          -2.4260    -0.8950    -3.1960 ha         1 DTM       0.122000
     34 H311         4.1540     0.0160    -0.8150 h1         1 DTM       0.042867
     35 H312         2.6390    -0.2410     0.0690 h1         1 DTM       0.042867
     36 H313         3.2490    -1.4920    -1.0380 h1         1 DTM       0.042867
     37 H411         1.8570     3.4890    -4.0550 h1         1 DTM       0.032700
     38 H412         0.2300     3.2090    -3.4120 h1         1 DTM       0.032700
     39 H413         1.6540     2.8820    -2.4030 h1         1 DTM       0.032700
     40 H511        -2.7280     1.5260    -5.8410 h1         1 DTM       0.042867
     41 H512        -2.6880    -0.1870    -5.3890 h1         1 DTM       0.042867
     42 H513        -3.2300     1.0340    -4.2150 h1         1 DTM       0.042867
     43 HCN1        -3.9660    -1.3620    -0.9200 h1         1 DTM       0.035367
     44 HCN2        -3.8800    -0.7040     0.7120 h1         1 DTM       0.035367
     45 HCN3        -2.9950     0.0770    -0.6090 h1         1 DTM       0.035367
     46 HN21         2.2190     1.5460     6.2170 hn         1 DTM       0.496000
     47 HN22         2.7790    -0.0700     6.0740 hn         1 DTM       0.496000
     48 HN41        -0.9530     3.2690     3.5950 hn         1 DTM       0.500500
     49 HN42        -1.7810     2.3530     2.4020 hn         1 DTM       0.500500
@<TRIPOS>BOND
     1     1    19 ar  
     2     1    20 1   
     3     1    21 ar  
     4     2     3 ar  
     5     2    21 ar  
     6     2    22 1   
     7     3     4 ar  
     8     3     7 ar  
     9     4     5 ar  
    10     4    28 1   
    11     5     6 ar  
    12     5    24 1   
    13     6    23 ar  
    14     6    29 1   
    15     7    19 ar  
    16     7    23 ar  
    17     8     9 1   
    18     8    24 1   
    19     8    30 1   
    20     8    31 1   
    21     9    10 ar  
    22     9    14 ar  
    23    10    11 ar  
    24    10    32 1   
    25    11    12 ar  
    26    11    25 1   
    27    12    13 ar  
    28    12    26 1   
    29    13    14 ar  
    30    13    27 1   
    31    14    33 1   
    32    15    25 1   
    33    15    34 1   
    34    15    35 1   
    35    15    36 1   
    36    16    26 1   
    37    16    37 1   
    38    16    38 1   
    39    16    39 1   
    40    17    27 1   
    41    17    40 1   
    42    17    41 1   
    43    17    42 1   
    44    18    24 1   
    45    18    43 1   
    46    18    44 1   
    47    18    45 1   
    48    20    46 1   
    49    20    47 1   
    50    22    48 1   
    51    22    49 1   
@<TRIPOS>SUBSTRUCTURE
     1 DTM         1 TEMP              0 ****  ****    0 ROOT
