@<TRIPOS>MOLECULE
DTM
   49    51     1     0     0
SMALL
No Charge or Current Charge


@<TRIPOS>ATOM
      1 C2B          0.2420     1.9010     4.4680 ca         1 DTM       0.430900
      2 C4B         -1.7580     1.4350     3.5500 ca         1 DTM       0.448900
      3 C4A         -1.1620     0.4470     2.7400 ca         1 DTM      -0.254000
      4 C5B         -1.8970    -0.3270     1.8100 ca         1 DTM      -0.073000
      5 C6B         -1.2280    -1.2920     1.0340 ca         1 DTM       0.177000
      6 C7           0.1620    -1.4290     1.2410 ca         1 DTM       0.117900
      7 C8A          0.2390     0.2400     2.8720 ca         1 DTM       0.127000
      8 C9          -1.2900    -2.4730    -1.2100 c3         1 DTM       0.237100
      9 C1          -0.4920    -1.3500    -1.8800 ca         1 DTM      -0.058300
     10 C2           0.8690    -1.5230    -2.1820 ca         1 DTM      -0.216500
     11 C3           1.6240    -0.4880    -2.7840 ca         1 DTM       0.156100
     12 C4           0.9870     0.7550    -3.0910 ca         1 DTM       0.028100
     13 C5          -0.3850     0.9190    -2.7840 ca         1 DTM       0.156100
     14 C6          -1.1130    -0.1300    -2.1860 ca         1 DTM      -0.216500
     15 C31          3.6660    -1.9050    -2.7680 c3         1 DTM       0.143900
     16 C41          3.0090     1.8930    -4.0690 c3         1 DTM       0.148900
     17 C51         -2.3650     2.4100    -2.7820 c3         1 DTM       0.143900
     18 CN          -3.3530    -2.4350     0.2550 c3         1 DTM       0.176100
     19 N1           0.9240     0.9930     3.7590 nb         1 DTM      -0.270000
     20 N2           0.9560     2.6350     5.3490 nv         1 DTM      -1.062900
     21 N3          -1.0620     2.1670     4.4190 nb         1 DTM      -0.347000
     22 N4          -3.0840     1.7220     3.5300 nv         1 DTM      -1.080900
     23 N8           0.8660    -0.6920     2.1240 nb         1 DTM      -0.131000
     24 N9          -1.9250    -2.0870     0.0780 nh         1 DTM      -0.766400
     25 O3           2.9660    -0.6840    -3.0680 os         1 DTM      -0.323600
     26 O4           1.6240     1.8490    -3.6820 os         1 DTM      -0.327100
     27 O5          -0.9860     2.1330    -3.0820 os         1 DTM      -0.323600
     28 H5          -2.9620    -0.1730     1.6750 ha         1 DTM       0.108000
     29 H7           0.7400    -2.1630     0.6830 h4         1 DTM       0.024100
     30 HC91        -2.0580    -2.8000    -1.9240 h1         1 DTM       0.062700
     31 HC92        -0.6330    -3.3370    -1.0430 h1         1 DTM       0.062700
     32 H2           1.3270    -2.4750    -1.9350 ha         1 DTM       0.122000
     33 H6          -2.1640    -0.0150    -1.9390 ha         1 DTM       0.122000
     34 H311         4.7150    -1.8260    -3.0780 h1         1 DTM       0.042867
     35 H312         3.6460    -2.1130    -1.6910 h1         1 DTM       0.042867
     36 H313         3.2190    -2.7530    -3.3020 h1         1 DTM       0.042867
     37 H411         3.2460     2.8700    -4.5080 h1         1 DTM       0.032700
     38 H412         3.6630     1.7490    -3.2000 h1         1 DTM       0.032700
     39 H413         3.2300     1.1260    -4.8210 h1         1 DTM       0.032700
     40 H511        -2.6250     3.4290    -3.0950 h1         1 DTM       0.042867
     41 H512        -3.0280     1.7130    -3.3100 h1         1 DTM       0.042867
     42 H513        -2.5540     2.3280    -1.7030 h1         1 DTM       0.042867
     43 HCN1        -3.5860    -3.3840    -0.2460 h1         1 DTM       0.035367
     44 HCN2        -3.5910    -2.5570     1.3210 h1         1 DTM       0.035367
     45 HCN3        -3.9950    -1.6490    -0.1640 h1         1 DTM       0.035367
     46 HN21         0.4460     3.1540     6.0590 hn         1 DTM       0.496000
     47 HN22         1.8880     2.3150     5.5990 hn         1 DTM       0.496000
     48 HN41        -3.4470     2.2940     4.2880 hn         1 DTM       0.500500
     49 HN42        -3.7230     1.0370     3.1400 hn         1 DTM       0.500500
@<TRIPOS>BOND
     1     1    19 ar  
     2     1    20 1   
     3     1    21 ar  
     4     2     3 ar  
     5     2    21 ar  
     6     2    22 1   
     7     3     4 ar  
     8     3     7 ar  
     9     4     5 ar  
    10     4    28 1   
    11     5     6 ar  
    12     5    24 1   
    13     6    23 ar  
    14     6    29 1   
    15     7    19 ar  
    16     7    23 ar  
    17     8     9 1   
    18     8    24 1   
    19     8    30 1   
    20     8    31 1   
    21     9    10 ar  
    22     9    14 ar  
    23    10    11 ar  
    24    10    32 1   
    25    11    12 ar  
    26    11    25 1   
    27    12    13 ar  
    28    12    26 1   
    29    13    14 ar  
    30    13    27 1   
    31    14    33 1   
    32    15    25 1   
    33    15    34 1   
    34    15    35 1   
    35    15    36 1   
    36    16    26 1   
    37    16    37 1   
    38    16    38 1   
    39    16    39 1   
    40    17    27 1   
    41    17    40 1   
    42    17    41 1   
    43    17    42 1   
    44    18    24 1   
    45    18    43 1   
    46    18    44 1   
    47    18    45 1   
    48    20    46 1   
    49    20    47 1   
    50    22    48 1   
    51    22    49 1   
@<TRIPOS>SUBSTRUCTURE
     1 DTM         1 TEMP              0 ****  ****    0 ROOT
