@<TRIPOS>MOLECULE
DTN
    6     4     1     0     0
SMALL
abcg2


@<TRIPOS>ATOM
      1 S1           1.1080    -0.3820     0.2460 ss         1 DTN       0.856000
      2 O1           1.2000    -0.7640    -1.2140 o          1 DTN      -0.928000
      3 O2           1.8500     0.9100     0.5380 o          1 DTN      -0.928000
      4 S2          -1.0920     0.3800     0.2750 ss         1 DTN       0.856000
      5 O3          -1.2140     0.7900    -1.1750 o          1 DTN      -0.928000
      6 O4          -1.8260    -0.9200     0.5560 o          1 DTN      -0.928000
@<TRIPOS>BOND
     1     1     2 1   
     2     1     3 1   
     3     4     5 1   
     4     4     6 1   
@<TRIPOS>SUBSTRUCTURE
     1 DTN         1 TEMP              0 ****  ****    0 ROOT
