@<TRIPOS>MOLECULE
DTN
    6     4     1     0     0
SMALL
No Charge or Current Charge


@<TRIPOS>ATOM
      1 S1          15.0340    -2.3900    -0.0860 ss         1 DTN       0.856000
      2 O1          15.8690    -2.8650    -1.2580 o          1 DTN      -0.928000
      3 O2          15.5790    -1.1600     0.6110 o          1 DTN      -0.928000
      4 S2         -15.0400     2.4050     0.1690 ss         1 DTN       0.856000
      5 O3         -15.8440     2.8850    -1.0230 o          1 DTN      -0.928000
      6 O4         -15.5720     1.1400     0.8120 o          1 DTN      -0.928000
@<TRIPOS>BOND
     1     1     2 1   
     2     1     3 1   
     3     4     5 1   
     4     4     6 1   
@<TRIPOS>SUBSTRUCTURE
     1 DTN         1 TEMP              0 ****  ****    0 ROOT
