@<TRIPOS>MOLECULE
DTO
   19    18     1     0     0
SMALL
No Charge or Current Charge


@<TRIPOS>ATOM
      1 S1          -0.4310    -0.6170     3.1290 ss         1 DTO      -0.048200
      2 O1           0.8600    -0.5860     4.2230 oh         1 DTO      -0.560800
      3 C1           0.4560    -0.2310     1.5540 c3         1 DTO      -0.037400
      4 C2          -0.5070    -0.2300     0.3410 c3         1 DTO       0.153300
      5 O2          -1.4470     0.8500     0.4790 oh         1 DTO      -0.653000
      6 C3           0.2480    -0.0840    -1.0150 c3         1 DTO       0.151300
      7 O3           0.8570     1.2200    -1.1030 oh         1 DTO      -0.647000
      8 C4          -0.6660    -0.2940    -2.2470 c3         1 DTO       0.038600
      9 S4           0.2100    -0.0590    -3.8710 sh         1 DTO      -0.427800
     10 H1           0.9200     0.3250     4.5890 ho         1 DTO       0.452000
     11 H12          0.9470     0.7450     1.6460 h1         1 DTO       0.078200
     12 H11          1.2310    -0.9920     1.4030 h1         1 DTO       0.078200
     13 H2          -1.0350    -1.1940     0.3340 h1         1 DTO       0.088700
     14 H2O1        -0.9760     1.6420     0.1310 ho         1 DTO       0.447000
     15 H3           1.0250    -0.8620    -1.0520 h1         1 DTO       0.090700
     16 H3O1         1.1520     1.3210    -2.0360 ho         1 DTO       0.448000
     17 H42         -1.0770    -1.3110    -2.2210 h1         1 DTO       0.071200
     18 H41         -1.5090     0.4080    -2.2060 h1         1 DTO       0.071200
     19 H4S         -0.8620    -0.3220    -4.6610 hs         1 DTO       0.205800
@<TRIPOS>BOND
     1     1     2 1   
     2     1     3 1   
     3     2    10 1   
     4     3     4 1   
     5     3    11 1   
     6     3    12 1   
     7     4     5 1   
     8     4     6 1   
     9     4    13 1   
    10     5    14 1   
    11     6     7 1   
    12     6     8 1   
    13     6    15 1   
    14     7    16 1   
    15     8     9 1   
    16     8    17 1   
    17     8    18 1   
    18     9    19 1   
@<TRIPOS>SUBSTRUCTURE
     1 DTO         1 TEMP              0 ****  ****    0 ROOT
