@<TRIPOS>MOLECULE
DTO
   19    18     1     0     0
SMALL
bcc


@<TRIPOS>ATOM
      1 S1          -0.4980    -0.0850     2.9610 ss         1 DTO      -0.000300
      2 O1           0.5920    -0.6270     4.0990 oh         1 DTO      -0.521800
      3 C1           0.4960    -0.1960     1.4480 c3         1 DTO      -0.085300
      4 C2          -0.4610    -0.1730     0.2640 c3         1 DTO       0.130100
      5 O2          -1.4090     0.8660     0.3980 oh         1 DTO      -0.590800
      6 C3           0.3020    -0.1030    -1.0670 c3         1 DTO       0.128100
      7 O3           1.0150     1.1050    -1.2060 oh         1 DTO      -0.584800
      8 C4          -0.6340    -0.3470    -2.2410 c3         1 DTO      -0.009300
      9 S4           0.3070    -0.1720    -3.7940 sh         1 DTO      -0.379900
     10 H1           1.0890     0.1300     4.4320 ho         1 DTO       0.413000
     11 H12          1.2120     0.6280     1.3990 h1         1 DTO       0.078200
     12 H11          1.0480    -1.1370     1.4620 h1         1 DTO       0.078200
     13 H2          -1.0380    -1.1020     0.2710 h1         1 DTO       0.088700
     14 H2O1        -0.9460     1.7020     0.5160 ho         1 DTO       0.408000
     15 H3           1.0550    -0.8970    -1.0560 h1         1 DTO       0.090700
     16 H3O1         0.4040     1.8090    -1.4520 ho         1 DTO       0.409000
     17 H42         -1.0440    -1.3550    -2.1790 h1         1 DTO       0.071200
     18 H41         -1.4660     0.3600    -2.2320 h1         1 DTO       0.071200
     19 H4S         -0.6280    -0.6760    -4.6060 hs         1 DTO       0.205800
@<TRIPOS>BOND
     1     1     2 1   
     2     1     3 1   
     3     2    10 1   
     4     3     4 1   
     5     3    11 1   
     6     3    12 1   
     7     4     5 1   
     8     4     6 1   
     9     4    13 1   
    10     5    14 1   
    11     6     7 1   
    12     6     8 1   
    13     6    15 1   
    14     7    16 1   
    15     8     9 1   
    16     8    17 1   
    17     8    18 1   
    18     9    19 1   
@<TRIPOS>SUBSTRUCTURE
     1 DTO         1 TEMP              0 ****  ****    0 ROOT
