@<TRIPOS>MOLECULE
DTQ
   37    39     1     0     0
SMALL
bcc


@<TRIPOS>ATOM
      1 N1           1.8310     0.0790    -1.0300 nb         1 DTQ      -0.794000
      2 C2           2.8470     0.0910    -0.1590 ca         1 DTQ       0.689900
      3 N3           2.7810     0.0750     1.1400 nb         1 DTQ      -0.729000
      4 C4           1.5310     0.0380     1.6710 ca         1 DTQ       0.458600
      5 C5           0.3770     0.0200     0.8700 ca         1 DTQ      -0.298600
      6 C6           0.6070     0.0450    -0.5460 ca         1 DTQ       0.733200
      7 C7           1.4000     0.0160     3.0760 ca         1 DTQ      -0.268300
      8 C8           0.1640    -0.0240     3.6650 ca         1 DTQ       0.156100
      9 C9          -1.0120    -0.0430     2.8500 ca         1 DTQ       0.116100
     10 C10         -0.8950    -0.0220     1.4860 ca         1 DTQ      -0.178000
     11 N12         -0.4540     0.0350    -1.3900 nu         1 DTQ      -0.737300
     12 C14         -0.5300     0.0380    -2.7830 ca         1 DTQ       0.204600
     13 C15          0.5670     0.0330    -3.6400 ca         1 DTQ      -0.183000
     14 C16          0.3620     0.0320    -5.0200 ca         1 DTQ       0.164100
     15 C17         -0.9210     0.0370    -5.5560 ca         1 DTQ      -0.254000
     16 C18         -2.0050     0.0420    -4.6890 ca         1 DTQ      -0.058000
     17 C19         -1.8250     0.0430    -3.3200 ca         1 DTQ      -0.230000
     18 O21          1.4670     0.0260    -5.7930 oh         1 DTQ      -0.491100
     19 O26         -0.0670    -0.0490     4.9790 os         1 DTQ      -0.292900
     20 C27          1.0460    -0.0330     5.8560 c3         1 DTQ       0.118700
     21 O31         -2.1650    -0.0840     3.5310 os         1 DTQ      -0.292900
     22 C32         -3.3740    -0.0970     2.7970 c3         1 DTQ       0.120700
     23 H21          3.8380     0.1190    -0.6020 h5         1 DTQ       0.047100
     24 H71          2.3070     0.0310     3.6640 ha         1 DTQ       0.161000
     25 H101        -1.7950    -0.0390     0.8870 ha         1 DTQ       0.130000
     26 H121        -1.3590     0.0220    -0.9520 hn         1 DTQ       0.439800
     27 H151         1.5720     0.0310    -3.2530 ha         1 DTQ       0.187000
     28 H171        -1.0730     0.0370    -6.6290 ha         1 DTQ       0.133000
     29 H181        -3.0090     0.0460    -5.0920 ha         1 DTQ       0.130000
     30 H191        -2.6860     0.0460    -2.6620 ha         1 DTQ       0.126000
     31 H211         1.2210     0.0250    -6.7240 ho         1 DTQ       0.425000
     32 H271         0.6410    -0.0690     6.8640 h1         1 DTQ       0.046367
     33 H272         1.6950    -0.8980     5.7010 h1         1 DTQ       0.046367
     34 H273         1.6360     0.8790     5.7420 h1         1 DTQ       0.046367
     35 H321        -4.1780    -0.1260     3.5270 h1         1 DTQ       0.042033
     36 H322        -3.4840     0.8000     2.1830 h1         1 DTQ       0.042033
     37 H323        -3.4470    -0.9780     2.1540 h1         1 DTQ       0.042033
@<TRIPOS>BOND
     1     1     2 ar  
     2     1     6 ar  
     3     2     3 ar  
     4     2    23 1   
     5     3     4 ar  
     6     4     5 ar  
     7     4     7 ar  
     8     5     6 ar  
     9     5    10 ar  
    10     6    11 1   
    11     7     8 ar  
    12     7    24 1   
    13     8     9 ar  
    14     8    19 1   
    15     9    10 ar  
    16     9    21 1   
    17    10    25 1   
    18    11    12 1   
    19    11    26 1   
    20    12    13 ar  
    21    12    17 ar  
    22    13    14 ar  
    23    13    27 1   
    24    14    15 ar  
    25    14    18 1   
    26    15    16 ar  
    27    15    28 1   
    28    16    17 ar  
    29    16    29 1   
    30    17    30 1   
    31    18    31 1   
    32    19    20 1   
    33    20    32 1   
    34    20    33 1   
    35    20    34 1   
    36    21    22 1   
    37    22    35 1   
    38    22    36 1   
    39    22    37 1   
@<TRIPOS>SUBSTRUCTURE
     1 DTQ         1 TEMP              0 ****  ****    0 ROOT
