@<TRIPOS>MOLECULE
DTQ
   37    39     1     0     0
SMALL
No Charge or Current Charge


@<TRIPOS>ATOM
      1 N1           1.8420     0.5360    -1.0300 nb         1 DTQ      -0.268000
      2 C2           2.8660     0.5940    -0.1610 ca         1 DTQ       0.163900
      3 N3           2.7900     0.4680     1.1780 nb         1 DTQ      -0.203000
      4 C4           1.5700     0.2620     1.7140 ca         1 DTQ       0.065000
      5 C5           0.4240     0.1810     0.8850 ca         1 DTQ      -0.168000
      6 C6           0.6200     0.3210    -0.5130 ca         1 DTQ       0.404900
      7 C7           1.4290     0.1270     3.1050 ca         1 DTQ      -0.185000
      8 C8           0.1620    -0.0900     3.6890 ca         1 DTQ       0.156100
      9 C9          -0.9840    -0.1760     2.8650 ca         1 DTQ       0.116100
     10 C10         -0.8500    -0.0410     1.4640 ca         1 DTQ      -0.160000
     11 N12         -0.4490     0.3030    -1.4110 nu         1 DTQ      -0.930900
     12 C14         -0.5590     0.2020    -2.7990 ca         1 DTQ       0.343000
     13 C15          0.4160    -0.4300    -3.5900 ca         1 DTQ      -0.165000
     14 C16          0.2480    -0.5210    -4.9780 ca         1 DTQ       0.164100
     15 C17         -0.8980     0.0100    -5.5870 ca         1 DTQ      -0.236000
     16 C18         -1.8850     0.6280    -4.8020 ca         1 DTQ      -0.040000
     17 C19         -1.7130     0.7160    -3.4110 ca         1 DTQ      -0.212000
     18 O21          1.1980    -1.1340    -5.7350 oh         1 DTQ      -0.530100
     19 O26          0.0040    -0.2250     5.0590 os         1 DTQ      -0.316100
     20 C27          1.1080    -0.1530     5.9780 c3         1 DTQ       0.141900
     21 O31         -2.2140    -0.3940     3.4650 os         1 DTQ      -0.316100
     22 C32         -3.4370    -0.4990     2.7140 c3         1 DTQ       0.143900
     23 H21          3.8560     0.7630    -0.5810 h5         1 DTQ       0.047100
     24 H71          2.3220     0.1940     3.7190 ha         1 DTQ       0.143000
     25 H101        -1.7250    -0.1160     0.8280 ha         1 DTQ       0.112000
     26 H121        -1.3390     0.4830    -0.9560 hn         1 DTQ       0.495000
     27 H151         1.2960    -0.8670    -3.1350 ha         1 DTQ       0.169000
     28 H171        -1.0350    -0.0580    -6.6640 ha         1 DTQ       0.115000
     29 H181        -2.7790     1.0360    -5.2690 ha         1 DTQ       0.112000
     30 H191        -2.4800     1.1960    -2.8090 ha         1 DTQ       0.108000
     31 H211         0.9100    -1.1040    -6.6720 ho         1 DTQ       0.464000
     32 H271         0.7540    -0.2860     7.0080 h1         1 DTQ       0.046367
     33 H272         1.8430    -0.9410     5.7680 h1         1 DTQ       0.046367
     34 H273         1.6070     0.8220     5.9140 h1         1 DTQ       0.046367
     35 H321        -4.2840    -0.6700     3.3910 h1         1 DTQ       0.042033
     36 H322        -3.6320     0.4250     2.1550 h1         1 DTQ       0.042033
     37 H323        -3.3910    -1.3380     2.0080 h1         1 DTQ       0.042033
@<TRIPOS>BOND
     1     1     2 ar  
     2     1     6 ar  
     3     2     3 ar  
     4     2    23 1   
     5     3     4 ar  
     6     4     5 ar  
     7     4     7 ar  
     8     5     6 ar  
     9     5    10 ar  
    10     6    11 1   
    11     7     8 ar  
    12     7    24 1   
    13     8     9 ar  
    14     8    19 1   
    15     9    10 ar  
    16     9    21 1   
    17    10    25 1   
    18    11    12 1   
    19    11    26 1   
    20    12    13 ar  
    21    12    17 ar  
    22    13    14 ar  
    23    13    27 1   
    24    14    15 ar  
    25    14    18 1   
    26    15    16 ar  
    27    15    28 1   
    28    16    17 ar  
    29    16    29 1   
    30    17    30 1   
    31    18    31 1   
    32    19    20 1   
    33    20    32 1   
    34    20    33 1   
    35    20    34 1   
    36    21    22 1   
    37    22    35 1   
    38    22    36 1   
    39    22    37 1   
@<TRIPOS>SUBSTRUCTURE
     1 DTQ         1 TEMP              0 ****  ****    0 ROOT
