@<TRIPOS>MOLECULE
DTR
   26    27     1     0     0
SMALL
No Charge or Current Charge


@<TRIPOS>ATOM
      1 N           -3.6900     2.7630     6.8390 n8         1 DTR      -0.979200
      2 CA          -3.4730     1.5960     5.9040 c3         1 DTR       0.017500
      3 CB          -4.3050     1.7930     4.6100 c3         1 DTR      -0.024200
      4 CG          -4.0010     0.7740     3.5420 cc         1 DTR      -0.090400
      5 CD1         -4.8080    -0.2840     3.1310 cd         1 DTR      -0.147100
      6 NE1         -4.1520    -1.0160     2.1110 na         1 DTR      -0.232700
      7 CE2         -2.9390    -0.3840     1.9110 ca         1 DTR      -0.049200
      8 CZ2         -1.9320    -0.7300     0.9990 ca         1 DTR      -0.140000
      9 CH2         -0.7670     0.0660     0.9610 ca         1 DTR      -0.108000
     10 CZ3         -0.6350     1.1800     1.8230 ca         1 DTR      -0.164000
     11 CE3         -1.6660     1.5050     2.7300 ca         1 DTR      -0.045000
     12 CD2         -2.8090     0.6910     2.7450 ca         1 DTR      -0.081800
     13 C           -3.7050     0.1510     6.5170 c          1 DTR       0.727000
     14 O           -4.8250    -0.1410     6.9220 o          1 DTR      -0.734500
     15 OXT         -2.7330    -0.5790     6.6680 o          1 DTR      -0.734500
     16 H           -4.6550     2.7290     7.1900 hn         1 DTR       0.370000
     17 HN2         -3.6500     3.6390     6.3050 hn         1 DTR       0.370000
     18 HA          -2.4160     1.6310     5.6080 h1         1 DTR       0.050700
     19 HB2         -5.3740     1.7600     4.8540 hc         1 DTR       0.024200
     20 HB3         -4.1130     2.7950     4.2050 hc         1 DTR       0.024200
     21 HD1         -5.7920    -0.5670     3.4950 h4         1 DTR       0.218000
     22 HE1         -4.5000    -1.8380     1.6260 hn         1 DTR       0.335000
     23 HZ2         -2.0430    -1.5860     0.3390 ha         1 DTR       0.096000
     24 HH2          0.0320    -0.1770     0.2640 ha         1 DTR       0.090000
     25 HZ3          0.2640     1.7900     1.7860 ha         1 DTR       0.094000
     26 HE3         -1.5760     2.3600     3.3950 ha         1 DTR       0.113000
@<TRIPOS>BOND
     1     1     2 1   
     2     1    16 1   
     3     1    17 1   
     4     2     3 1   
     5     2    13 1   
     6     2    18 1   
     7     3     4 1   
     8     3    19 1   
     9     3    20 1   
    10     4     5 2   
    11     4    12 1   
    12     5     6 1   
    13     5    21 1   
    14     6     7 1   
    15     6    22 1   
    16     7     8 ar  
    17     7    12 ar  
    18     8     9 ar  
    19     8    23 1   
    20     9    10 ar  
    21     9    24 1   
    22    10    11 ar  
    23    10    25 1   
    24    11    12 ar  
    25    11    26 1   
    26    13    14 1   
    27    13    15 1   
@<TRIPOS>SUBSTRUCTURE
     1 DTR         1 TEMP              0 ****  ****    0 ROOT
