@<TRIPOS>MOLECULE
DTR
   26    27     1     0     0
SMALL
abcg2


@<TRIPOS>ATOM
      1 N           -3.7240     2.6450     6.8890 n8         1 DTR      -0.979200
      2 CA          -3.4730     1.6000     5.9020 c3         1 DTR       0.017500
      3 CB          -4.2730     1.7990     4.6020 c3         1 DTR      -0.024200
      4 CG          -3.9650     0.7890     3.5490 cc         1 DTR      -0.090400
      5 CD1         -4.7210    -0.2870     3.1810 cd         1 DTR      -0.147100
      6 NE1         -4.0840    -1.0030     2.2030 na         1 DTR      -0.232700
      7 CE2         -2.8950    -0.4050     1.9100 ca         1 DTR      -0.049200
      8 CZ2         -1.9060    -0.7490     0.9890 ca         1 DTR      -0.140000
      9 CH2         -0.7900     0.0640     0.9160 ca         1 DTR      -0.108000
     10 CZ3         -0.6560     1.1970     1.7360 ca         1 DTR      -0.164000
     11 CE3         -1.6390     1.5350     2.6460 ca         1 DTR      -0.045000
     12 CD2         -2.7810     0.7310     2.7440 ca         1 DTR      -0.081800
     13 C           -3.8240     0.2350     6.5250 c          1 DTR       0.727000
     14 O           -4.9900     0.1300     6.9660 o          1 DTR      -0.734500
     15 OXT         -2.9450    -0.6460     6.5410 o          1 DTR      -0.734500
     16 H           -4.6800     2.5510     7.2110 hn         1 DTR       0.370000
     17 HN2         -3.6680     3.5540     6.4430 hn         1 DTR       0.370000
     18 HA          -2.4070     1.6150     5.6560 h1         1 DTR       0.050700
     19 HB2         -5.3380     1.7710     4.8470 hc         1 DTR       0.024200
     20 HB3         -4.0650     2.8040     4.2190 hc         1 DTR       0.024200
     21 HD1         -5.6830    -0.6020     3.5520 h4         1 DTR       0.218000
     22 HE1         -4.4520    -1.8280     1.7600 hn         1 DTR       0.335000
     23 HZ2         -2.0040    -1.6200     0.3530 ha         1 DTR       0.096000
     24 HH2         -0.0030    -0.1770     0.2120 ha         1 DTR       0.090000
     25 HZ3          0.2320     1.8100     1.6530 ha         1 DTR       0.094000
     26 HE3         -1.5290     2.4100     3.2760 ha         1 DTR       0.113000
@<TRIPOS>BOND
     1     1     2 1   
     2     1    16 1   
     3     1    17 1   
     4     2     3 1   
     5     2    13 1   
     6     2    18 1   
     7     3     4 1   
     8     3    19 1   
     9     3    20 1   
    10     4     5 2   
    11     4    12 1   
    12     5     6 1   
    13     5    21 1   
    14     6     7 1   
    15     6    22 1   
    16     7     8 ar  
    17     7    12 ar  
    18     8     9 ar  
    19     8    23 1   
    20     9    10 ar  
    21     9    24 1   
    22    10    11 ar  
    23    10    25 1   
    24    11    12 ar  
    25    11    26 1   
    26    13    14 1   
    27    13    15 1   
@<TRIPOS>SUBSTRUCTURE
     1 DTR         1 TEMP              0 ****  ****    0 ROOT
