@<TRIPOS>MOLECULE
DTS
   29    30     1     0     0
SMALL
bcc


@<TRIPOS>ATOM
      1 C12          3.9230     1.4430     0.4280 ca         1 DTS      -0.159500
      2 C13          2.6460     1.1290    -0.0120 ca         1 DTS      -0.062500
      3 C11          4.8670     0.4390     0.6110 ca         1 DTS      -0.119000
      4 C10          4.5350    -0.8830     0.3520 ca         1 DTS      -0.159500
      5 C9           3.2580    -1.2100    -0.0880 ca         1 DTS      -0.062500
      6 C8           2.3230    -0.2010    -0.2550 ca         1 DTS      -0.060500
      7 C7          -0.1830    -0.5020     0.7480 c3         1 DTS       0.065200
      8 C4          -3.6140    -2.0290     0.4610 ca         1 DTS      -0.155000
      9 C5          -2.2560    -1.8480     0.6710 ca         1 DTS      -0.139000
     10 C6          -1.6560    -0.6000     0.5080 ca         1 DTS      -0.056300
     11 C3          -4.3950    -0.9450     0.0870 ca         1 DTS      -0.157000
     12 C2          -3.8080     0.3000    -0.0700 ca         1 DTS      -0.108000
     13 C1          -2.4400     0.4970     0.1160 ca         1 DTS      -0.129600
     14 O2           0.7090    -2.0960    -1.1900 o          1 DTS      -0.542200
     15 S            0.6840    -0.6210    -0.8620 sx         1 DTS       0.270400
     16 C           -1.8730     1.8920    -0.1330 c          1 DTS       0.929200
     17 O1          -0.6520     1.9750    -0.3840 o          1 DTS      -0.833800
     18 O           -2.6820     2.8350    -0.0850 o          1 DTS      -0.833800
     19 H10          4.1840     2.4750     0.6230 ha         1 DTS       0.118000
     20 H11          1.9080     1.9080    -0.1560 ha         1 DTS       0.165500
     21 H9           5.8630     0.6910     0.9510 ha         1 DTS       0.112000
     22 H8           5.2700    -1.6650     0.4900 ha         1 DTS       0.118000
     23 H7           2.9940    -2.2380    -0.2970 ha         1 DTS       0.165500
     24 H5           0.1160     0.4260     1.2230 h1         1 DTS       0.081200
     25 H6           0.1860    -1.3460     1.3340 h1         1 DTS       0.081200
     26 H2          -5.4580    -1.0680    -0.0760 ha         1 DTS       0.105000
     27 H1          -4.4200     1.1470    -0.3490 ha         1 DTS       0.145000
     28 H3          -4.0570    -3.0080     0.5920 ha         1 DTS       0.105000
     29 H4          -1.6500    -2.6910     0.9810 ha         1 DTS       0.116000
@<TRIPOS>BOND
     1     1     2 ar  
     2     1     3 ar  
     3     1    19 1   
     4     2     6 ar  
     5     2    20 1   
     6     3     4 ar  
     7     3    21 1   
     8     4     5 ar  
     9     4    22 1   
    10     5     6 ar  
    11     5    23 1   
    12     6    15 1   
    13     7    10 1   
    14     7    15 1   
    15     7    24 1   
    16     7    25 1   
    17     8     9 ar  
    18     8    11 ar  
    19     8    28 1   
    20     9    10 ar  
    21     9    29 1   
    22    10    13 ar  
    23    11    12 ar  
    24    11    26 1   
    25    12    13 ar  
    26    12    27 1   
    27    13    16 1   
    28    14    15 2   
    29    16    17 1   
    30    16    18 1   
@<TRIPOS>SUBSTRUCTURE
     1 DTS         1 TEMP              0 ****  ****    0 ROOT
