@<TRIPOS>MOLECULE
DTS
   29    30     1     0     0
SMALL
No Charge or Current Charge


@<TRIPOS>ATOM
      1 C12          4.2200     1.4080     0.0810 ca         1 DTS      -0.141500
      2 C13          2.9490     1.1250    -0.4490 ca         1 DTS      -0.044500
      3 C11          4.9570     0.3980     0.7230 ca         1 DTS      -0.101000
      4 C10          4.4230    -0.8970     0.8360 ca         1 DTS      -0.141500
      5 C9           3.1520    -1.1840     0.3080 ca         1 DTS      -0.044500
      6 C8           2.4150    -0.1720    -0.3360 ca         1 DTS      -0.060500
      7 C7          -0.1810    -0.4130     0.5880 c3         1 DTS       0.065200
      8 C4          -3.5890    -2.1300     0.2870 ca         1 DTS      -0.137000
      9 C5          -2.2110    -1.9040     0.4300 ca         1 DTS      -0.121000
     10 C6          -1.6870    -0.5960     0.3960 ca         1 DTS      -0.056300
     11 C3          -4.4600    -1.0460     0.1150 ca         1 DTS      -0.139000
     12 C2          -3.9530     0.2630     0.0800 ca         1 DTS      -0.090000
     13 C1          -2.5670     0.5060     0.2140 ca         1 DTS      -0.129600
     14 O2           0.7390    -1.9750    -1.4860 o          1 DTS      -0.569000
     15 S            0.7510    -0.5260    -1.0200 sx         1 DTS       0.297200
     16 C           -2.0760     1.9370     0.1650 c          1 DTS       0.718600
     17 O1          -1.1760     2.2220    -0.6100 o          1 DTS      -0.728500
     18 O           -2.6420     2.7620     0.8690 o          1 DTS      -0.728500
     19 H10          4.6330     2.4110    -0.0060 ha         1 DTS       0.100000
     20 H11          2.3780     1.9090    -0.9440 ha         1 DTS       0.147500
     21 H9           5.9400     0.6190     1.1330 ha         1 DTS       0.094000
     22 H8           4.9930    -1.6780     1.3340 ha         1 DTS       0.100000
     23 H7           2.7410    -2.1880     0.3960 ha         1 DTS       0.147500
     24 H5           0.0440     0.5630     1.0330 h1         1 DTS       0.081200
     25 H6           0.2190    -1.1900     1.2500 h1         1 DTS       0.081200
     26 H2          -5.5290    -1.2180     0.0070 ha         1 DTS       0.087000
     27 H1          -4.6380     1.0970    -0.0560 ha         1 DTS       0.127000
     28 H3          -3.9800    -3.1440     0.3140 ha         1 DTS       0.087000
     29 H4          -1.5450    -2.7530     0.5680 ha         1 DTS       0.098000
@<TRIPOS>BOND
     1     1     2 ar  
     2     1     3 ar  
     3     1    19 1   
     4     2     6 ar  
     5     2    20 1   
     6     3     4 ar  
     7     3    21 1   
     8     4     5 ar  
     9     4    22 1   
    10     5     6 ar  
    11     5    23 1   
    12     6    15 1   
    13     7    10 1   
    14     7    15 1   
    15     7    24 1   
    16     7    25 1   
    17     8     9 ar  
    18     8    11 ar  
    19     8    28 1   
    20     9    10 ar  
    21     9    29 1   
    22    10    13 ar  
    23    11    12 ar  
    24    11    26 1   
    25    12    13 ar  
    26    12    27 1   
    27    13    16 1   
    28    14    15 2   
    29    16    17 1   
    30    16    18 1   
@<TRIPOS>SUBSTRUCTURE
     1 DTS         1 TEMP              0 ****  ****    0 ROOT
