@<TRIPOS>MOLECULE
DTT
   18    17     1     0     0
SMALL
No Charge or Current Charge


@<TRIPOS>ATOM
      1 S1           3.3570    21.9750    25.7240 sh         1 DTT      -0.430300
      2 C1           2.3820    22.0280    24.1380 c3         1 DTT       0.064100
      3 C2           1.1330    22.9510    24.1660 c3         1 DTT       0.164300
      4 O2           0.2370    22.5250    25.2080 oh         1 DTT      -0.656500
      5 C3           0.3300    22.9910    22.8250 c3         1 DTT       0.164300
      6 O3          -0.8760    23.7550    23.0390 oh         1 DTT      -0.656500
      7 C4           1.1140    23.6060    21.6320 c3         1 DTT       0.064100
      8 S4           2.2140    22.4190    20.7150 sh         1 DTT      -0.430300
      9 HS1          4.2970    21.0990    25.2930 hs         1 DTT       0.202800
     10 H11          3.0670    22.3740    23.3560 h1         1 DTT       0.073450
     11 H12          2.0720    21.0060    23.8840 h1         1 DTT       0.073450
     12 H2           1.4800    23.9720    24.3780 h1         1 DTT       0.054200
     13 HO2         -0.6250    22.9400    24.9700 ho         1 DTT       0.454000
     14 H3           0.0600    21.9600    22.5560 h1         1 DTT       0.054200
     15 HO3         -1.4630    23.6080    22.2620 ho         1 DTT       0.454000
     16 H41          0.4010    24.0090    20.9000 h1         1 DTT       0.073450
     17 H42          1.7250    24.4460    21.9890 h1         1 DTT       0.073450
     18 HS2          1.2240    21.6070    20.2670 hs         1 DTT       0.202800
@<TRIPOS>BOND
     1     1     2 1   
     2     1     9 1   
     3     2     3 1   
     4     2    10 1   
     5     2    11 1   
     6     3     4 1   
     7     3     5 1   
     8     3    12 1   
     9     4    13 1   
    10     5     6 1   
    11     5     7 1   
    12     5    14 1   
    13     6    15 1   
    14     7     8 1   
    15     7    16 1   
    16     7    17 1   
    17     8    18 1   
@<TRIPOS>SUBSTRUCTURE
     1 DTT         1 TEMP              0 ****  ****    0 ROOT
