@<TRIPOS>MOLECULE
DTT
   18    17     1     0     0
SMALL
abcg2


@<TRIPOS>ATOM
      1 S1           3.0690    21.9050    25.7550 sh         1 DTT      -0.430300
      2 C1           2.3240    21.9830    24.0870 c3         1 DTT       0.064100
      3 C2           1.1260    22.9120    24.1380 c3         1 DTT       0.164300
      4 O2           0.3190    22.4750    25.2050 oh         1 DTT      -0.656500
      5 C3           0.3130    22.9470    22.8390 c3         1 DTT       0.164300
      6 O3          -0.7540    23.8330    23.1150 oh         1 DTT      -0.656500
      7 C4           1.0980    23.4530    21.6270 c3         1 DTT       0.064100
      8 S4           2.1660    22.1920    20.8440 sh         1 DTT      -0.430300
      9 HS1          4.2880    21.5200    25.3630 hs         1 DTT       0.202800
     10 H11          3.0760    22.3670    23.4010 h1         1 DTT       0.073450
     11 H12          2.0350    20.9830    23.7620 h1         1 DTT       0.073450
     12 H2           1.4970    23.9340    24.3220 h1         1 DTT       0.054200
     13 HO2         -0.4530    23.0500    25.2450 ho         1 DTT       0.454000
     14 H3          -0.0620    21.9370    22.6250 h1         1 DTT       0.054200
     15 HO3         -1.4560    23.6830    22.4750 ho         1 DTT       0.454000
     16 H41          0.3960    23.7870    20.8630 h1         1 DTT       0.073450
     17 H42          1.7170    24.3120    21.8910 h1         1 DTT       0.073450
     18 HS2          1.4290    21.9990    19.7460 hs         1 DTT       0.202800
@<TRIPOS>BOND
     1     1     2 1   
     2     1     9 1   
     3     2     3 1   
     4     2    10 1   
     5     2    11 1   
     6     3     4 1   
     7     3     5 1   
     8     3    12 1   
     9     4    13 1   
    10     5     6 1   
    11     5     7 1   
    12     5    14 1   
    13     6    15 1   
    14     7     8 1   
    15     7    16 1   
    16     7    17 1   
    17     8    18 1   
@<TRIPOS>SUBSTRUCTURE
     1 DTT         1 TEMP              0 ****  ****    0 ROOT
