@<TRIPOS>MOLECULE
DTU
   18    17     1     0     0
SMALL
No Charge or Current Charge


@<TRIPOS>ATOM
      1 S1           0.1660    -0.3610     3.5340 sh         1 DTU      -0.423800
      2 C1          -0.5970    -0.4750     1.8420 c3         1 DTU       0.042600
      3 C2           0.2900     0.1140     0.7190 c3         1 DTU       0.145800
      4 O2           1.6030    -0.4650     0.8270 oh         1 DTU      -0.638500
      5 C3          -0.2930    -0.1240    -0.7070 c3         1 DTU       0.145800
      6 O3          -1.6050     0.4540    -0.8150 oh         1 DTU      -0.638500
      7 C4           0.5940     0.4650    -1.8310 c3         1 DTU       0.042600
      8 S4          -0.1690     0.3510    -3.5230 sh         1 DTU      -0.423800
      9 H1          -0.8640    -0.9350     4.2050 hs         1 DTU       0.202800
     10 H1C1        -1.5580     0.0560     1.8610 h1         1 DTU       0.070950
     11 H1C2        -0.8040    -1.5320     1.6270 h1         1 DTU       0.070950
     12 H2           0.3530     1.1990     0.8820 h1         1 DTU       0.084700
     13 HA           1.7920    -0.5250     1.7900 ho         1 DTU       0.445000
     14 H3          -0.3550    -1.2100    -0.8700 h1         1 DTU       0.084700
     15 HB          -1.7940     0.5150    -1.7790 ho         1 DTU       0.445000
     16 H4C1         0.8010     1.5220    -1.6150 h1         1 DTU       0.070950
     17 H4C2         1.5550    -0.0660    -1.8500 h1         1 DTU       0.070950
     18 H4           0.8620     0.9250    -4.1930 hs         1 DTU       0.202800
@<TRIPOS>BOND
     1     1     2 1   
     2     1     9 1   
     3     2     3 1   
     4     2    10 1   
     5     2    11 1   
     6     3     4 1   
     7     3     5 1   
     8     3    12 1   
     9     4    13 1   
    10     5     6 1   
    11     5     7 1   
    12     5    14 1   
    13     6    15 1   
    14     7     8 1   
    15     7    16 1   
    16     7    17 1   
    17     8    18 1   
@<TRIPOS>SUBSTRUCTURE
     1 DTU         1 TEMP              0 ****  ****    0 ROOT
