@<TRIPOS>MOLECULE
DTU
   18    17     1     0     0
SMALL
bcc


@<TRIPOS>ATOM
      1 S1           0.0860    -0.0390     3.4130 sh         1 DTU      -0.375900
      2 C1          -0.6140    -0.4690     1.7840 c3         1 DTU      -0.005300
      3 C2           0.2290     0.2010     0.7070 c3         1 DTU       0.122600
      4 O2           1.6010    -0.0570     0.8940 oh         1 DTU      -0.576300
      5 C3          -0.2300    -0.2160    -0.6990 c3         1 DTU       0.122600
      6 O3          -1.6020     0.0400    -0.8860 oh         1 DTU      -0.576300
      7 C4           0.6130     0.4580    -1.7730 c3         1 DTU      -0.005300
      8 S4          -0.0940     0.0430    -3.4030 sh         1 DTU      -0.375900
      9 H1          -1.0020    -0.3230     4.1370 hs         1 DTU       0.202800
     10 H1C1        -1.6440    -0.1250     1.7340 h1         1 DTU       0.070950
     11 H1C2        -0.6110    -1.5550     1.6540 h1         1 DTU       0.070950
     12 H2           0.1190     1.2870     0.8020 h1         1 DTU       0.084700
     13 HA           1.7460    -1.0090     0.8510 ho         1 DTU       0.406000
     14 H3          -0.1180    -1.3020    -0.7960 h1         1 DTU       0.084700
     15 HB          -1.7520     0.9910    -0.8220 ho         1 DTU       0.406000
     16 H4C1         0.6160     1.5430    -1.6360 h1         1 DTU       0.070950
     17 H4C2         1.6420     0.1080    -1.7290 h1         1 DTU       0.070950
     18 H4           0.9910     0.3310    -4.1290 hs         1 DTU       0.202800
@<TRIPOS>BOND
     1     1     2 1   
     2     1     9 1   
     3     2     3 1   
     4     2    10 1   
     5     2    11 1   
     6     3     4 1   
     7     3     5 1   
     8     3    12 1   
     9     4    13 1   
    10     5     6 1   
    11     5     7 1   
    12     5    14 1   
    13     6    15 1   
    14     7     8 1   
    15     7    16 1   
    16     7    17 1   
    17     8    18 1   
@<TRIPOS>SUBSTRUCTURE
     1 DTU         1 TEMP              0 ****  ****    0 ROOT
