@<TRIPOS>MOLECULE
DTV
   18    17     1     0     0
SMALL
abcg2


@<TRIPOS>ATOM
      1 S1          -0.0800    -0.1540     3.4250 sh         1 DTV      -0.428800
      2 C1           0.7360    -0.2430     1.7950 c3         1 DTV       0.039600
      3 C2          -0.3240    -0.1280     0.7100 c3         1 DTV       0.150300
      4 O2          -1.1580     0.9900     0.9120 oh         1 DTV      -0.647500
      5 C3           0.3230    -0.1220    -0.6850 c3         1 DTV       0.150300
      6 O3           1.1330     1.0140    -0.8880 oh         1 DTV      -0.647500
      7 C4          -0.7340    -0.2600    -1.7710 c3         1 DTV       0.039600
      8 S4           0.0810    -0.1490    -3.4000 sh         1 DTV      -0.428800
      9 H1           0.9540    -0.5980     4.1480 hs         1 DTV       0.205800
     10 H1C1         1.2540    -1.1970     1.7040 h1         1 DTV       0.072200
     11 H1C2         1.4730     0.5570     1.7060 h1         1 DTV       0.072200
     12 H2          -0.9750    -1.0050     0.7700 h1         1 DTV       0.087700
     13 HA          -0.6110     1.7650     1.0800 ho         1 DTV       0.449000
     14 H3           0.9940    -0.9850    -0.7460 h1         1 DTV       0.087700
     15 HB           0.5700     1.7790    -1.0490 ho         1 DTV       0.449000
     16 H4C1        -1.2300    -1.2260    -1.6810 h1         1 DTV       0.072200
     17 H4C2        -1.4890     0.5230    -1.6800 h1         1 DTV       0.072200
     18 H4          -0.9450    -0.6080    -4.1250 hs         1 DTV       0.205800
@<TRIPOS>BOND
     1     1     2 1   
     2     1     9 1   
     3     2     3 1   
     4     2    10 1   
     5     2    11 1   
     6     3     4 1   
     7     3     5 1   
     8     3    12 1   
     9     4    13 1   
    10     5     6 1   
    11     5     7 1   
    12     5    14 1   
    13     6    15 1   
    14     7     8 1   
    15     7    16 1   
    16     7    17 1   
    17     8    18 1   
@<TRIPOS>SUBSTRUCTURE
     1 DTV         1 TEMP              0 ****  ****    0 ROOT
