@<TRIPOS>MOLECULE
DTV
   18    17     1     0     0
SMALL
No Charge or Current Charge


@<TRIPOS>ATOM
      1 S1           0.0010     0.0020     3.4840 sh         1 DTV      -0.428800
      2 C1           0.7530    -0.1890     1.7950 c3         1 DTV       0.039600
      3 C2          -0.2750    -0.0770     0.6430 c3         1 DTV       0.150300
      4 O2          -0.9820     1.1730     0.7700 oh         1 DTV      -0.647500
      5 C3           0.3710    -0.1830    -0.7720 c3         1 DTV       0.150300
      6 O3           1.2140     0.9630    -0.9980 oh         1 DTV      -0.647500
      7 C4          -0.6910    -0.2840    -1.8990 c3         1 DTV       0.039600
      8 S4           0.0030    -0.6060    -3.5950 sh         1 DTV      -0.428800
      9 H1           1.1530    -0.1590     4.1830 hs         1 DTV       0.205800
     10 H1C1         1.2440    -1.1710     1.7450 h1         1 DTV       0.072200
     11 H1C2         1.5290     0.5780     1.6740 h1         1 DTV       0.072200
     12 H2          -0.9790    -0.9150     0.7550 h1         1 DTV       0.087700
     13 HA          -1.2000     1.2680     1.7250 ho         1 DTV       0.449000
     14 H3           0.9710    -1.1040    -0.8010 h1         1 DTV       0.087700
     15 HB           0.7060     1.7270    -0.6440 ho         1 DTV       0.449000
     16 H4C1        -1.3830    -1.1020    -1.6610 h1         1 DTV       0.072200
     17 H4C2        -1.2770     0.6440    -1.9340 h1         1 DTV       0.072200
     18 H4          -1.1870    -0.6120    -4.2460 hs         1 DTV       0.205800
@<TRIPOS>BOND
     1     1     2 1   
     2     1     9 1   
     3     2     3 1   
     4     2    10 1   
     5     2    11 1   
     6     3     4 1   
     7     3     5 1   
     8     3    12 1   
     9     4    13 1   
    10     5     6 1   
    11     5     7 1   
    12     5    14 1   
    13     6    15 1   
    14     7     8 1   
    15     7    16 1   
    16     7    17 1   
    17     8    18 1   
@<TRIPOS>SUBSTRUCTURE
     1 DTV         1 TEMP              0 ****  ****    0 ROOT
