@<TRIPOS>MOLECULE
DTW
   50    52     1     0     0
SMALL
No Charge or Current Charge


@<TRIPOS>ATOM
      1 C4           2.6960     1.7120    -0.3310 ca         1 DTW       0.161500
      2 C5           1.8350     2.7410    -0.6470 ca         1 DTW      -0.099600
      3 C6           2.3910     3.9710    -1.0500 ca         1 DTW       0.456900
      4 C8           0.5930     1.1110    -0.0920 cc         1 DTW       0.423700
      5 N1           3.7200     4.1450    -1.1180 nb         1 DTW      -0.285000
      6 N3           4.0350     1.8550    -0.3910 nb         1 DTW      -0.222000
      7 C2           4.4790     3.0730    -0.7840 ca         1 DTW       0.202900
      8 CAC         -6.0990     0.5630    -0.2520 c          1 DTW       0.622100
      9 CAE         -4.7840     1.3380    -0.4070 c3         1 DTW      -0.164400
     10 CAF         -3.5560     0.4490    -0.0940 c3         1 DTW      -0.061400
     11 CAG         -2.2170     1.1970    -0.2480 c3         1 DTW       0.072600
     12 CAS          2.3790    -0.6360     0.5400 c5         1 DTW       0.317300
     13 CAU          1.8990    -2.9400     0.3360 c5         1 DTW       0.127300
     14 CAV          0.4340    -3.4390     0.1780 c3         1 DTW       0.108800
     15 CAZ          2.3150    -2.6240     1.8190 c5         1 DTW       0.109300
     16 CBB          1.8630    -1.1400     1.9280 c5         1 DTW       0.138300
     17 N6           1.6260     5.0450    -1.3830 nv         1 DTW      -1.051900
     18 N7           0.4910     2.3780    -0.5110 nd         1 DTW      -0.538100
     19 N9           1.9070     0.6520     0.0220 na         1 DTW      -0.282300
     20 NAA         -8.1580     0.3250     1.2160 n8         1 DTW      -0.720200
     21 NAB         -6.8640     0.9090     0.8660 ns         1 DTW      -0.406300
     22 NAW          0.0950    -3.6020    -1.2400 n2         1 DTW      -0.021200
     23 NAX          0.2340    -4.7350    -1.7270 n1         1 DTW       0.218000
     24 NAY          0.5910    -4.6430    -2.9090 n2         1 DTW      -0.208400
     25 OAD         -6.4640    -0.2760    -1.0670 o          1 DTW      -0.572100
     26 OAT          2.0670    -1.6930    -0.3950 os         1 DTW      -0.434000
     27 OBA          3.7350    -2.7310     2.0330 oh         1 DTW      -0.658000
     28 OBC          2.4800    -0.5030     3.0560 oh         1 DTW      -0.652000
     29 SAH         -0.8050     0.0670     0.1390 ss         1 DTW      -0.319200
     30 H1           5.5590     3.2040    -0.8370 h5         1 DTW       0.059100
     31 H2          -4.7060     1.6860    -1.4440 hc         1 DTW       0.064700
     32 H3          -4.7750     2.1990     0.2730 hc         1 DTW       0.064700
     33 H4          -3.6370     0.0660     0.9310 hc         1 DTW       0.057700
     34 H5          -3.5570    -0.4210    -0.7630 hc         1 DTW       0.057700
     35 H6          -2.1110     1.5650    -1.2770 h1         1 DTW       0.086700
     36 H7          -2.1870     2.0570     0.4340 h1         1 DTW       0.086700
     37 H8           3.4720    -0.5460     0.6010 h2         1 DTW       0.143700
     38 H9           2.5650    -3.6960    -0.1040 h1         1 DTW       0.082700
     39 H10          0.3200    -4.3840     0.7250 h1         1 DTW       0.117700
     40 H11         -0.2490    -2.7190     0.6410 h1         1 DTW       0.117700
     41 H12          1.7730    -3.2590     2.5340 h1         1 DTW       0.055700
     42 H13          0.7720    -1.0690     2.0070 h1         1 DTW       0.056700
     43 H14          0.6420     4.9970    -1.1270 hn         1 DTW       0.511000
     44 H15          2.0550     5.9660    -1.3670 hn         1 DTW       0.511000
     45 H16         -8.1320    -0.1230     2.1460 hn         1 DTW       0.404000
     46 H17         -8.8980     1.0420     1.2590 hn         1 DTW       0.404000
     47 H18         -6.4660     1.6280     1.4720 hn         1 DTW       0.299500
     48 H19          0.3570    -5.5110    -3.4060 hn         1 DTW       0.520400
     49 H20          3.9690    -3.6910     2.0460 ho         1 DTW       0.513000
     50 H21          3.3090    -1.0200     3.2090 ho         1 DTW       0.523000
@<TRIPOS>BOND
     1     1     2 ar  
     2     1     6 ar  
     3     1    19 1   
     4     2     3 ar  
     5     2    18 1   
     6     3     5 ar  
     7     3    17 1   
     8     4    18 2   
     9     4    19 1   
    10     4    29 1   
    11     5     7 ar  
    12     6     7 ar  
    13     7    30 1   
    14     8     9 1   
    15     8    21 1   
    16     8    25 2   
    17     9    10 1   
    18     9    31 1   
    19     9    32 1   
    20    10    11 1   
    21    10    33 1   
    22    10    34 1   
    23    11    29 1   
    24    11    35 1   
    25    11    36 1   
    26    12    16 1   
    27    12    19 1   
    28    12    26 1   
    29    12    37 1   
    30    13    14 1   
    31    13    15 1   
    32    13    26 1   
    33    13    38 1   
    34    14    22 1   
    35    14    39 1   
    36    14    40 1   
    37    15    16 1   
    38    15    27 1   
    39    15    41 1   
    40    16    28 1   
    41    16    42 1   
    42    17    43 1   
    43    17    44 1   
    44    20    21 1   
    45    20    45 1   
    46    20    46 1   
    47    21    47 1   
    48    22    23 2   
    49    23    24 2   
    50    24    48 1   
    51    27    49 1   
    52    28    50 1   
@<TRIPOS>SUBSTRUCTURE
     1 DTW         1 TEMP              0 ****  ****    0 ROOT
