@<TRIPOS>MOLECULE
DTW
   50    52     1     0     0
SMALL
abcg2


@<TRIPOS>ATOM
      1 C4           2.7190     1.8020    -0.2740 ca         1 DTW       0.161500
      2 C5           1.8240     2.7980    -0.6170 ca         1 DTW      -0.099600
      3 C6           2.3650     4.0770    -0.8310 ca         1 DTW       0.456900
      4 C8           0.6600     1.0460    -0.3860 cc         1 DTW       0.423700
      5 N1           3.6880     4.2260    -0.6950 nb         1 DTW      -0.285000
      6 N3           4.0320     1.9320    -0.1340 nb         1 DTW      -0.222000
      7 C2           4.4290     3.1730    -0.3650 ca         1 DTW       0.202900
      8 CAC         -5.8490     0.3310    -0.0740 c          1 DTW       0.622100
      9 CAE         -4.5600     1.1210    -0.1810 c3         1 DTW      -0.164400
     10 CAF         -3.3370     0.2100    -0.2000 c3         1 DTW      -0.061400
     11 CAG         -2.0690     1.0380    -0.3430 c3         1 DTW       0.072600
     12 CAS          2.4750    -0.5970     0.3220 c5         1 DTW       0.317300
     13 CAU          1.8930    -2.8300     0.2270 c5         1 DTW       0.127300
     14 CAV          0.4690    -3.3600     0.1980 c3         1 DTW       0.108800
     15 CAZ          2.3300    -2.5200     1.6730 c5         1 DTW       0.109300
     16 CBB          2.0770    -1.0090     1.7360 c5         1 DTW       0.138300
     17 N6           1.6190     5.1290    -1.1750 nv         1 DTW      -1.051900
     18 N7           0.5460     2.3050    -0.6890 nd         1 DTW      -0.538100
     19 N9           1.9590     0.6690    -0.1180 na         1 DTW      -0.282300
     20 NAA         -7.9700     0.2620     1.0030 n8         1 DTW      -0.720200
     21 NAB         -6.7280     0.8390     0.8080 ns         1 DTW      -0.406300
     22 NAW          0.0080    -3.3960    -1.2020 n2         1 DTW      -0.021200
     23 NAX         -0.4140    -4.3170    -1.7530 n1         1 DTW       0.218000
     24 NAY         -0.9850    -5.1360    -2.3600 n2         1 DTW      -0.208400
     25 OAD         -6.0530    -0.6670    -0.7450 o          1 DTW      -0.572100
     26 OAT          1.9810    -1.6170    -0.5070 os         1 DTW      -0.434000
     27 OBA          3.6970    -2.7390     1.8630 oh         1 DTW      -0.658000
     28 OBC          2.8290    -0.2960     2.6600 oh         1 DTW      -0.652000
     29 SAH         -0.6500    -0.0980    -0.3590 ss         1 DTW      -0.319200
     30 H1           5.4930     3.3600    -0.2730 h5         1 DTW       0.059100
     31 H2          -4.6030     1.6990    -1.1100 hc         1 DTW       0.064700
     32 H3          -4.4710     1.8470     0.6300 hc         1 DTW       0.064700
     33 H4          -3.2980    -0.3730     0.7240 hc         1 DTW       0.057700
     34 H5          -3.4190    -0.4980    -1.0260 hc         1 DTW       0.057700
     35 H6          -2.0740     1.6100    -1.2700 h1         1 DTW       0.086700
     36 H7          -1.9510     1.7320     0.4900 h1         1 DTW       0.086700
     37 H8           3.5660    -0.5120     0.2540 h2         1 DTW       0.143700
     38 H9           2.5530    -3.5760    -0.2240 h1         1 DTW       0.082700
     39 H10          0.4100    -4.3570     0.6310 h1         1 DTW       0.117700
     40 H11         -0.2350    -2.6960     0.6990 h1         1 DTW       0.117700
     41 H12          1.7230    -3.0710     2.4020 h1         1 DTW       0.055700
     42 H13          1.0000    -0.8440     1.8700 h1         1 DTW       0.056700
     43 H14          0.6160     5.0630    -1.2000 hn         1 DTW       0.511000
     44 H15          2.0350     6.0410    -1.2430 hn         1 DTW       0.511000
     45 H16         -8.0620    -0.0020     1.9750 hn         1 DTW       0.404000
     46 H17         -8.6890     0.9460     0.8030 hn         1 DTW       0.404000
     47 H18         -6.4830     1.6680     1.3300 hn         1 DTW       0.299500
     48 H19         -0.4000    -5.7760    -2.9090 hn         1 DTW       0.520400
     49 H20          3.8610    -3.6870     1.8750 ho         1 DTW       0.513000
     50 H21          2.4420    -0.4100     3.5330 ho         1 DTW       0.523000
@<TRIPOS>BOND
     1     1     2 ar  
     2     1     6 ar  
     3     1    19 1   
     4     2     3 ar  
     5     2    18 1   
     6     3     5 ar  
     7     3    17 1   
     8     4    18 2   
     9     4    19 1   
    10     4    29 1   
    11     5     7 ar  
    12     6     7 ar  
    13     7    30 1   
    14     8     9 1   
    15     8    21 1   
    16     8    25 2   
    17     9    10 1   
    18     9    31 1   
    19     9    32 1   
    20    10    11 1   
    21    10    33 1   
    22    10    34 1   
    23    11    29 1   
    24    11    35 1   
    25    11    36 1   
    26    12    16 1   
    27    12    19 1   
    28    12    26 1   
    29    12    37 1   
    30    13    14 1   
    31    13    15 1   
    32    13    26 1   
    33    13    38 1   
    34    14    22 1   
    35    14    39 1   
    36    14    40 1   
    37    15    16 1   
    38    15    27 1   
    39    15    41 1   
    40    16    28 1   
    41    16    42 1   
    42    17    43 1   
    43    17    44 1   
    44    20    21 1   
    45    20    45 1   
    46    20    46 1   
    47    21    47 1   
    48    22    23 2   
    49    23    24 2   
    50    24    48 1   
    51    27    49 1   
    52    28    50 1   
@<TRIPOS>SUBSTRUCTURE
     1 DTW         1 TEMP              0 ****  ****    0 ROOT
