@<TRIPOS>MOLECULE
DTX
   61    65     1     0     0
SMALL
bcc


@<TRIPOS>ATOM
      1 O23          0.8020    -0.2980    -7.1770 o          1 DTX      -0.566500
      2 C23          0.4290    -0.0590    -6.0560 c          1 DTX       0.724800
      3 C22          1.1910     0.3370    -4.8750 ce         1 DTX      -0.274200
      4 O21         -0.8690    -0.1270    -5.7150 os         1 DTX      -0.403900
      5 C21         -1.0280     0.1830    -4.3350 c5         1 DTX       0.150600
      6 C20          0.3530     0.4920    -3.8450 c2         1 DTX      -0.072400
      7 C17          0.7270     0.9310    -2.4690 c5         1 DTX      -0.012500
      8 C16         -0.1320     2.1150    -1.9490 c5         1 DTX      -0.068400
      9 C13          0.6500    -0.1590    -1.3490 c5         1 DTX      -0.022000
     10 C12          1.8420     0.0930    -0.4100 c6         1 DTX      -0.074400
     11 C11          1.7350    -0.6290     0.9240 c6         1 DTX      -0.073400
     12 C18          0.7320    -1.5880    -1.8790 c3         1 DTX      -0.074100
     13 C14         -0.6560     0.1710    -0.5950 c5         1 DTX       0.169800
     14 C15         -0.6580     1.7020    -0.5710 c5         1 DTX      -0.111400
     15 O14         -1.7150    -0.2720    -1.4330 oh         1 DTX      -0.606800
     16 C8          -0.7670    -0.5060     0.7850 c6         1 DTX      -0.070700
     17 C7          -2.0670    -0.1210     1.4970 c6         1 DTX      -0.074400
     18 C9           0.4610    -0.2470     1.6750 c6         1 DTX      -0.041700
     19 C10          0.3440    -0.9290     3.0660 c6         1 DTX      -0.029000
     20 C1           1.5080    -0.5370     3.9950 c6         1 DTX      -0.065400
     21 C19          0.3800    -2.4570     2.9390 c3         1 DTX      -0.086100
     22 C5          -0.9760    -0.4980     3.7500 c6         1 DTX      -0.049700
     23 C6          -2.1840    -0.7850     2.8620 c6         1 DTX      -0.070400
     24 C4          -0.9610     0.9720     4.1860 c6         1 DTX      -0.065400
     25 C3           0.2120     1.3270     5.0840 c6         1 DTX       0.149100
     26 C2           1.5210     0.9260     4.4140 c6         1 DTX      -0.109400
     27 O32          0.0290     0.6610     6.3220 oh         1 DTX      -0.598800
     28 H22          2.2610     0.4820    -4.8800 ha         1 DTX       0.170000
     29 H211        -1.4750    -0.6680    -3.8250 h1         1 DTX       0.086700
     30 H212        -1.7100     1.0300    -4.2360 h1         1 DTX       0.086700
     31 H17          1.7720     1.2420    -2.5430 hc         1 DTX       0.058700
     32 H161         0.4600     3.0290    -1.9010 hc         1 DTX       0.047700
     33 H162        -0.9600     2.3290    -2.6240 hc         1 DTX       0.047700
     34 H121         1.9550     1.1670    -0.2270 hc         1 DTX       0.041700
     35 H122         2.7560    -0.2150    -0.9260 hc         1 DTX       0.041700
     36 H111         2.6180    -0.3840     1.5180 hc         1 DTX       0.044200
     37 H112         1.7700    -1.7100     0.7630 hc         1 DTX       0.044200
     38 H181         1.6510    -1.7200    -2.4540 hc         1 DTX       0.041033
     39 H182         0.7540    -2.3160    -1.0680 hc         1 DTX       0.041033
     40 H183        -0.1000    -1.8600    -2.5270 hc         1 DTX       0.041033
     41 H151        -0.0170     2.0810     0.2260 hc         1 DTX       0.051700
     42 H152        -1.6540     2.1080    -0.3740 hc         1 DTX       0.051700
     43 H14O        -2.5230     0.1850    -1.1810 ho         1 DTX       0.403000
     44 HC8         -0.8190    -1.5850     0.5900 hc         1 DTX       0.064700
     45 HC71        -2.9320    -0.4120     0.8930 hc         1 DTX       0.035700
     46 HC72        -2.1240     0.9660     1.6090 hc         1 DTX       0.035700
     47 HC9          0.5120     0.8350     1.8510 hc         1 DTX       0.043700
     48 HC11         1.4360    -1.1560     4.8960 hc         1 DTX       0.043700
     49 HC12         2.4660    -0.8030     3.5420 hc         1 DTX       0.043700
     50 H191         0.1070    -2.9190     3.8900 hc         1 DTX       0.034700
     51 H192        -0.3000    -2.8470     2.1820 hc         1 DTX       0.034700
     52 H193         1.3800    -2.8130     2.6880 hc         1 DTX       0.034700
     53 HC5         -1.0740    -1.1030     4.6580 hc         1 DTX       0.064700
     54 HC61        -2.3010    -1.8650     2.7330 hc         1 DTX       0.042700
     55 HC62        -3.0950    -0.4420     3.3610 hc         1 DTX       0.042700
     56 HC41        -1.9000     1.2060     4.6980 hc         1 DTX       0.046200
     57 HC42        -0.9210     1.6360     3.3200 hc         1 DTX       0.046200
     58 HC3          0.2140     2.4160     5.2440 h1         1 DTX       0.028700
     59 HC21         2.3590     1.1110     5.0950 hc         1 DTX       0.041700
     60 HC22         1.6910     1.5810     3.5540 hc         1 DTX       0.041700
     61 H32O         0.7990     0.8330     6.8720 ho         1 DTX       0.400000
@<TRIPOS>BOND
     1     1     2 2   
     2     2     3 1   
     3     2     4 1   
     4     3     6 2   
     5     3    28 1   
     6     4     5 1   
     7     5     6 1   
     8     5    29 1   
     9     5    30 1   
    10     6     7 1   
    11     7     8 1   
    12     7     9 1   
    13     7    31 1   
    14     8    14 1   
    15     8    32 1   
    16     8    33 1   
    17     9    10 1   
    18     9    12 1   
    19     9    13 1   
    20    10    11 1   
    21    10    34 1   
    22    10    35 1   
    23    11    18 1   
    24    11    36 1   
    25    11    37 1   
    26    12    38 1   
    27    12    39 1   
    28    12    40 1   
    29    13    14 1   
    30    13    15 1   
    31    13    16 1   
    32    14    41 1   
    33    14    42 1   
    34    15    43 1   
    35    16    17 1   
    36    16    18 1   
    37    16    44 1   
    38    17    23 1   
    39    17    45 1   
    40    17    46 1   
    41    18    19 1   
    42    18    47 1   
    43    19    20 1   
    44    19    21 1   
    45    19    22 1   
    46    20    26 1   
    47    20    48 1   
    48    20    49 1   
    49    21    50 1   
    50    21    51 1   
    51    21    52 1   
    52    22    23 1   
    53    22    24 1   
    54    22    53 1   
    55    23    54 1   
    56    23    55 1   
    57    24    25 1   
    58    24    56 1   
    59    24    57 1   
    60    25    26 1   
    61    25    27 1   
    62    25    58 1   
    63    26    59 1   
    64    26    60 1   
    65    27    61 1   
@<TRIPOS>SUBSTRUCTURE
     1 DTX         1 TEMP              0 ****  ****    0 ROOT
