@<TRIPOS>MOLECULE
DTX
   61    65     1     0     0
SMALL
No Charge or Current Charge


@<TRIPOS>ATOM
      1 O23          1.0480    -0.5370    -7.1780 o          1 DTX      -0.491000
      2 C23          0.5330    -0.2150    -6.1200 c          1 DTX       0.649300
      3 C22          1.2190     0.2840    -4.9300 ce         1 DTX      -0.324200
      4 O21         -0.8120    -0.2590    -5.8400 os         1 DTX      -0.427100
      5 C21         -1.0590     0.1980    -4.4680 c5         1 DTX       0.173800
      6 C20          0.3370     0.5310    -3.9660 c2         1 DTX      -0.072400
      7 C17          0.6810     1.0600    -2.5620 c5         1 DTX      -0.012500
      8 C16         -0.3210     2.1660    -2.0770 c5         1 DTX      -0.068400
      9 C13          0.7000    -0.0660    -1.4020 c5         1 DTX      -0.022000
     10 C12          1.9340     0.1100    -0.4090 c6         1 DTX      -0.074400
     11 C11          1.7830    -0.6610     0.9200 c6         1 DTX      -0.073400
     12 C18          0.8000    -1.5260    -1.9600 c3         1 DTX      -0.074100
     13 C14         -0.6650     0.2220    -0.6450 c5         1 DTX       0.193000
     14 C15         -0.6400     1.7850    -0.6040 c5         1 DTX      -0.111400
     15 O14         -1.7920    -0.2120    -1.4130 oh         1 DTX      -0.669000
     16 C8          -0.7790    -0.4920     0.7610 c6         1 DTX      -0.070700
     17 C7          -2.0950    -0.0880     1.5070 c6         1 DTX      -0.074400
     18 C9           0.4810    -0.2630     1.6810 c6         1 DTX      -0.041700
     19 C10          0.3470    -0.9810     3.0960 c6         1 DTX      -0.029000
     20 C1           1.5200    -0.6170     4.0770 c6         1 DTX      -0.065400
     21 C19          0.3440    -2.5450     2.9560 c3         1 DTX      -0.086100
     22 C5          -0.9980    -0.4930     3.7990 c6         1 DTX      -0.049700
     23 C6          -2.2290    -0.7640     2.8910 c6         1 DTX      -0.070400
     24 C4          -0.9890     1.0160     4.2900 c6         1 DTX      -0.065400
     25 C3           0.2310     1.3220     5.1930 c6         1 DTX       0.172300
     26 C2           1.5510     0.8770     4.5090 c6         1 DTX      -0.109400
     27 O32          0.0860     0.6820     6.4660 oh         1 DTX      -0.661000
     28 H22          2.2980     0.4110    -4.8940 ha         1 DTX       0.220000
     29 H211        -1.5410    -0.6090    -3.9030 h1         1 DTX       0.086700
     30 H212        -1.7290     1.0670    -4.4940 h1         1 DTX       0.086700
     31 H17          1.6820     1.5040    -2.6210 hc         1 DTX       0.058700
     32 H161         0.1150     3.1690    -2.1500 hc         1 DTX       0.047700
     33 H162        -1.2420     2.1950    -2.6670 hc         1 DTX       0.047700
     34 H121         2.0930     1.1730    -0.1830 hc         1 DTX       0.041700
     35 H122         2.8590    -0.2090    -0.9100 hc         1 DTX       0.041700
     36 H111         2.6650    -0.4370     1.5310 hc         1 DTX       0.044200
     37 H112         1.8130    -1.7400     0.7310 hc         1 DTX       0.044200
     38 H181         1.7370    -1.6760    -2.5090 hc         1 DTX       0.041033
     39 H182         0.7600    -2.2780    -1.1660 hc         1 DTX       0.041033
     40 H183        -0.0180    -1.7700    -2.6450 hc         1 DTX       0.041033
     41 H151         0.1130     2.1860     0.0810 hc         1 DTX       0.051700
     42 H152        -1.5970     2.2130    -0.2870 hc         1 DTX       0.051700
     43 H14O        -2.5860     0.0250    -0.8920 ho         1 DTX       0.442000
     44 HC8         -0.8460    -1.5670     0.5500 hc         1 DTX       0.064700
     45 HC71        -2.9740    -0.3650     0.9100 hc         1 DTX       0.035700
     46 HC72        -2.1480     1.0000     1.6290 hc         1 DTX       0.035700
     47 HC9          0.5450     0.8160     1.8640 hc         1 DTX       0.043700
     48 HC11         1.4290    -1.2310     4.9840 hc         1 DTX       0.043700
     49 HC12         2.4920    -0.8970     3.6550 hc         1 DTX       0.043700
     50 H191         0.1330    -3.0260     3.9190 hc         1 DTX       0.034700
     51 H192        -0.4030    -2.9160     2.2480 hc         1 DTX       0.034700
     52 H193         1.3190    -2.9240     2.6270 hc         1 DTX       0.034700
     53 HC5         -1.1370    -1.1060     4.7020 hc         1 DTX       0.064700
     54 HC61        -2.3750    -1.8440     2.7600 hc         1 DTX       0.042700
     55 HC62        -3.1420    -0.4050     3.3860 hc         1 DTX       0.042700
     56 HC41        -1.9170     1.2440     4.8320 hc         1 DTX       0.046200
     57 HC42        -0.9630     1.7010     3.4340 hc         1 DTX       0.046200
     58 HC3          0.2760     2.4110     5.3460 h1         1 DTX       0.028700
     59 HC21         2.3940     1.0420     5.1930 hc         1 DTX       0.041700
     60 HC22         1.7500     1.5180     3.6400 hc         1 DTX       0.041700
     61 H32O         0.8860     0.9100     6.9860 ho         1 DTX       0.439000
@<TRIPOS>BOND
     1     1     2 2   
     2     2     3 1   
     3     2     4 1   
     4     3     6 2   
     5     3    28 1   
     6     4     5 1   
     7     5     6 1   
     8     5    29 1   
     9     5    30 1   
    10     6     7 1   
    11     7     8 1   
    12     7     9 1   
    13     7    31 1   
    14     8    14 1   
    15     8    32 1   
    16     8    33 1   
    17     9    10 1   
    18     9    12 1   
    19     9    13 1   
    20    10    11 1   
    21    10    34 1   
    22    10    35 1   
    23    11    18 1   
    24    11    36 1   
    25    11    37 1   
    26    12    38 1   
    27    12    39 1   
    28    12    40 1   
    29    13    14 1   
    30    13    15 1   
    31    13    16 1   
    32    14    41 1   
    33    14    42 1   
    34    15    43 1   
    35    16    17 1   
    36    16    18 1   
    37    16    44 1   
    38    17    23 1   
    39    17    45 1   
    40    17    46 1   
    41    18    19 1   
    42    18    47 1   
    43    19    20 1   
    44    19    21 1   
    45    19    22 1   
    46    20    26 1   
    47    20    48 1   
    48    20    49 1   
    49    21    50 1   
    50    21    51 1   
    51    21    52 1   
    52    22    23 1   
    53    22    24 1   
    54    22    53 1   
    55    23    54 1   
    56    23    55 1   
    57    24    25 1   
    58    24    56 1   
    59    24    57 1   
    60    25    26 1   
    61    25    27 1   
    62    25    58 1   
    63    26    59 1   
    64    26    60 1   
    65    27    61 1   
@<TRIPOS>SUBSTRUCTURE
     1 DTX         1 TEMP              0 ****  ****    0 ROOT
