@<TRIPOS>MOLECULE
DTY
   23    23     1     0     0
SMALL
No Charge or Current Charge


@<TRIPOS>ATOM
      1 N           -0.4760    -1.7850     1.4260 n8         1 DTY      -0.862800
      2 CA           0.8770    -1.2820     0.9750 c3         1 DTY       0.022500
      3 C            2.1090    -2.2800     1.1340 c          1 DTY       0.929600
      4 O            2.2260    -3.2260     0.3570 o          1 DTY      -0.831800
      5 CB           0.7810    -0.7210    -0.4690 c3         1 DTY      -0.012100
      6 CG           1.9960     0.1170    -0.8570 ca         1 DTY      -0.070300
      7 CD1          2.1580     1.4140    -0.3300 ca         1 DTY      -0.081000
      8 CD2          2.9630    -0.3950    -1.7450 ca         1 DTY      -0.081000
      9 CE1          3.2770     2.1890    -0.6870 ca         1 DTY      -0.199000
     10 CE2          4.0800     0.3830    -2.1000 ca         1 DTY      -0.199000
     11 CZ           4.2350     1.6720    -1.5710 ca         1 DTY       0.108100
     12 OH           5.3190     2.4190    -1.9190 oh         1 DTY      -0.511100
     13 OXT          2.8680    -2.1220     2.0860 o          1 DTY      -0.831800
     14 H           -1.1590    -1.0230     1.3680 hn         1 DTY       0.307300
     15 H2          -0.4330    -2.0200     2.4230 hn         1 DTY       0.307300
     16 HA           1.0900    -0.4260     1.6290 h1         1 DTY       0.004700
     17 HB2          0.6400    -1.5490    -1.1750 hc         1 DTY       0.037200
     18 HB3         -0.1180    -0.0990    -0.5540 hc         1 DTY       0.037200
     19 HD1          1.4170     1.8200     0.3550 ha         1 DTY       0.138500
     20 HD2          2.8500    -1.3960    -2.1590 ha         1 DTY       0.138500
     21 HE1          3.3900     3.1890    -0.2730 ha         1 DTY       0.120500
     22 HE2          4.8240    -0.0170    -2.7850 ha         1 DTY       0.120500
     23 HH           5.2590     3.2810    -1.4570 ho         1 DTY       0.408000
@<TRIPOS>BOND
     1     1     2 1   
     2     1    14 1   
     3     1    15 1   
     4     2     3 1   
     5     2     5 1   
     6     2    16 1   
     7     3     4 1   
     8     3    13 1   
     9     5     6 1   
    10     5    17 1   
    11     5    18 1   
    12     6     7 ar  
    13     6     8 ar  
    14     7     9 ar  
    15     7    19 1   
    16     8    10 ar  
    17     8    20 1   
    18     9    11 ar  
    19     9    21 1   
    20    10    11 ar  
    21    10    22 1   
    22    11    12 1   
    23    12    23 1   
@<TRIPOS>SUBSTRUCTURE
     1 DTY         1 TEMP              0 ****  ****    0 ROOT
