@<TRIPOS>MOLECULE
DTY
   23    23     1     0     0
SMALL
bcc


@<TRIPOS>ATOM
      1 N           -0.3570    -1.8990     1.3450 n8         1 DTY      -0.862800
      2 CA           0.9000    -1.2370     0.9990 c3         1 DTY       0.022500
      3 C            2.0430    -2.2780     1.0220 c          1 DTY       0.929600
      4 O            1.9990    -3.1780     0.1610 o          1 DTY      -0.831800
      5 CB           0.7510    -0.6120    -0.3890 c3         1 DTY      -0.012100
      6 CG           1.9570     0.1810    -0.8070 ca         1 DTY      -0.070300
      7 CD1          2.1070     1.5120    -0.4310 ca         1 DTY      -0.081000
      8 CD2          2.9800    -0.3930    -1.5610 ca         1 DTY      -0.081000
      9 CE1          3.2280     2.2500    -0.7860 ca         1 DTY      -0.199000
     10 CE2          4.1060     0.3270    -1.9280 ca         1 DTY      -0.199000
     11 CZ           4.2380     1.6580    -1.5410 ca         1 DTY       0.108100
     12 OH           5.3510     2.3230    -1.9210 oh         1 DTY      -0.511100
     13 OXT          2.9090    -2.1450     1.9110 o          1 DTY      -0.831800
     14 H           -1.0860    -1.1990     1.4200 hn         1 DTY       0.307300
     15 H2          -0.2830    -2.3030     2.2710 hn         1 DTY       0.307300
     16 HA           1.1550    -0.4340     1.7070 h1         1 DTY       0.004700
     17 HB2          0.5560    -1.4100    -1.1080 hc         1 DTY       0.037200
     18 HB3         -0.1280     0.0410    -0.3870 hc         1 DTY       0.037200
     19 HD1          1.3300     1.9950     0.1510 ha         1 DTY       0.138500
     20 HD2          2.8950    -1.4290    -1.8630 ha         1 DTY       0.138500
     21 HE1          3.3130     3.2860    -0.4780 ha         1 DTY       0.120500
     22 HE2          4.8850    -0.1410    -2.5180 ha         1 DTY       0.120500
     23 HH           5.3240     3.2290    -1.5960 ho         1 DTY       0.408000
@<TRIPOS>BOND
     1     1     2 1   
     2     1    14 1   
     3     1    15 1   
     4     2     3 1   
     5     2     5 1   
     6     2    16 1   
     7     3     4 1   
     8     3    13 1   
     9     5     6 1   
    10     5    17 1   
    11     5    18 1   
    12     6     7 ar  
    13     6     8 ar  
    14     7     9 ar  
    15     7    19 1   
    16     8    10 ar  
    17     8    20 1   
    18     9    11 ar  
    19     9    21 1   
    20    10    11 ar  
    21    10    22 1   
    22    11    12 1   
    23    12    23 1   
@<TRIPOS>SUBSTRUCTURE
     1 DTY         1 TEMP              0 ****  ****    0 ROOT
