@<TRIPOS>MOLECULE
DU0
   89    94     1     0     0
SMALL
No Charge or Current Charge


@<TRIPOS>ATOM
      1 C13        -10.0800     2.5560     0.2410 c3         1 DU0      -0.084100
      2 C15         -7.4060    -0.1400     1.1740 c6         1 DU0      -0.083400
      3 C17         -0.6150     0.3340     0.2110 c6         1 DU0      -0.041700
      4 C20          2.3390     0.2380     0.3070 c2         1 DU0      -0.108400
      5 C21          3.8550     0.2110     0.5440 c6         1 DU0      -0.069200
      6 C22          4.5480    -0.9970    -0.1350 c6         1 DU0       0.179300
      7 C24          6.8030    -0.0130    -0.2890 c3         1 DU0       0.165600
      8 C26          9.3460     0.5650    -0.4990 c3         1 DU0      -0.062700
      9 C01         -3.1990    -0.9650     1.6160 c3         1 DU0      -0.083100
     10 C02         -2.9400    -0.9240     0.0600 c5         1 DU0      -0.037000
     11 C03         -2.0780     0.2890    -0.3970 c5         1 DU0      -0.064700
     12 C04         -3.0290     1.4890    -0.1100 c5         1 DU0      -0.072400
     13 C05         -4.3890     0.9490    -0.6670 c5         1 DU0       0.161300
     14 C06         -4.1890    -0.5860    -0.8500 c5         1 DU0      -0.087700
     15 C07         -5.5310    -1.2220    -0.3250 c5         1 DU0      -0.065700
     16 C08         -6.1750    -2.2350    -1.3010 c3         1 DU0      -0.072100
     17 C09         -6.4170     0.0760    -0.0040 c5         1 DU0       0.385000
     18 C11         -8.1000     1.6110    -1.0830 c6         1 DU0       0.165600
     19 C12         -9.1010     1.3640     0.0750 c6         1 DU0      -0.098700
     20 C14         -8.3430     1.0640     1.3840 c6         1 DU0      -0.069400
     21 C18          0.2540     1.5420    -0.3150 c6         1 DU0      -0.038200
     22 C19          1.7410     1.3800    -0.0740 c2         1 DU0      -0.217200
     23 C25          8.2560    -0.3890     0.0750 c3         1 DU0      -0.085400
     24 C27          9.2100     2.0060     0.0820 c3         1 DU0       0.172100
     25 C51         10.7570    -0.0490    -0.2600 c3         1 DU0       0.172100
     26 C75          3.8620    -2.3070     0.2980 c6         1 DU0      -0.072400
     27 C76          2.3550    -2.2860    -0.0490 c6         1 DU0      -0.066400
     28 C77          1.5680    -1.0780     0.5720 c6         1 DU0       0.003200
     29 C78          1.4880    -1.2360     2.1320 c3         1 DU0      -0.079100
     30 C79          0.1220    -1.0220    -0.0880 c6         1 DU0      -0.046700
     31 C80         -0.7680    -2.2800     0.2580 c6         1 DU0      -0.070400
     32 C81         -2.1970    -2.2230    -0.3530 c6         1 DU0      -0.062400
     33 O10         -7.1140     0.5600    -1.2170 os         1 DU0      -0.474000
     34 O16         -5.4200     1.0610     0.3270 os         1 DU0      -0.466000
     35 O23          5.9540    -1.0700     0.1910 os         1 DU0      -0.466000
     36 O28          9.9760     2.9560    -0.6670 oh         1 DU0      -0.640000
     37 O52         11.7340     0.4960    -1.1540 oh         1 DU0      -0.640000
     38 H1         -10.6370     2.7420    -0.6850 hc         1 DU0       0.034367
     39 H2         -10.8130     2.3590     1.0330 hc         1 DU0       0.034367
     40 H3          -9.5470     3.4780     0.5010 hc         1 DU0       0.034367
     41 H4          -8.0020    -1.0430     0.9850 hc         1 DU0       0.054700
     42 H5          -6.8400    -0.3330     2.0950 hc         1 DU0       0.054700
     43 H6          -0.7060     0.4560     1.2960 hc         1 DU0       0.056700
     44 H7           4.2990     1.1460     0.1780 hc         1 DU0       0.051200
     45 H8           4.0570     0.1850     1.6220 hc         1 DU0       0.051200
     46 H9           4.4500    -0.8960    -1.2260 h1         1 DU0       0.034700
     47 H10          6.5370     0.9420     0.1790 h1         1 DU0       0.021700
     48 H11          6.7120     0.0900    -1.3780 h1         1 DU0       0.021700
     49 H12          9.1820     0.6180    -1.5830 hc         1 DU0       0.072700
     50 H13         -3.8880    -0.1880     1.9590 hc         1 DU0       0.036367
     51 H14         -3.6250    -1.9260     1.9260 hc         1 DU0       0.036367
     52 H15         -2.2800    -0.8410     2.1980 hc         1 DU0       0.036367
     53 H16         -1.8960     0.2340    -1.4800 hc         1 DU0       0.042700
     54 H17         -3.0780     1.7400     0.9550 hc         1 DU0       0.055700
     55 H18         -2.7100     2.3950    -0.6370 hc         1 DU0       0.055700
     56 H19         -4.7020     1.4430    -1.5980 h1         1 DU0       0.052700
     57 H20         -4.0080    -0.8210    -1.9070 hc         1 DU0       0.063700
     58 H21         -5.3940    -1.7950     0.5940 hc         1 DU0       0.061700
     59 H22         -5.5210    -3.1030    -1.4470 hc         1 DU0       0.038033
     60 H23         -7.1330    -2.6000    -0.9140 hc         1 DU0       0.038033
     61 H24         -6.3570    -1.7870    -2.2840 hc         1 DU0       0.038033
     62 H25         -8.6400     1.7130    -2.0350 h1         1 DU0       0.047200
     63 H26         -7.5680     2.5560    -0.9020 h1         1 DU0       0.047200
     64 H27         -9.7180     0.4920    -0.1850 hc         1 DU0       0.053700
     65 H28         -9.0520     0.8470     2.1950 hc         1 DU0       0.047700
     66 H29         -7.7610     1.9430     1.6980 hc         1 DU0       0.047700
     67 H30          0.0930     1.6700    -1.3940 hc         1 DU0       0.047700
     68 H31         -0.0940     2.4700     0.1580 hc         1 DU0       0.047700
     69 H32          2.3320     2.2840    -0.2310 ha         1 DU0       0.168000
     70 H33          8.3510    -0.4350     1.1670 hc         1 DU0       0.054200
     71 H34          8.4410    -1.4030    -0.3000 hc         1 DU0       0.054200
     72 H35          8.1590     2.3140     0.0620 h1         1 DU0       0.012450
     73 H36          9.5280     2.0020     1.1330 h1         1 DU0       0.012450
     74 H37         11.0540     0.1170     0.7840 h1         1 DU0       0.012450
     75 H38         10.7060    -1.1350    -0.4140 h1         1 DU0       0.012450
     76 H39          4.3410    -3.1540    -0.2100 hc         1 DU0       0.052200
     77 H40          4.0070    -2.4720     1.3740 hc         1 DU0       0.052200
     78 H41          2.2570    -2.2660    -1.1430 hc         1 DU0       0.042700
     79 H42          1.9170    -3.2380     0.2770 hc         1 DU0       0.042700
     80 H43          0.8850    -0.4490     2.5950 hc         1 DU0       0.035033
     81 H44          1.0620    -2.2010     2.4270 hc         1 DU0       0.035033
     82 H45          2.4750    -1.1870     2.6030 hc         1 DU0       0.035033
     83 H46          0.2670    -1.0450    -1.1780 hc         1 DU0       0.045700
     84 H47         -0.2870    -3.1930    -0.1130 hc         1 DU0       0.040700
     85 H48         -0.8550    -2.4120     1.3420 hc         1 DU0       0.040700
     86 H49         -2.7750    -3.1060    -0.0480 hc         1 DU0       0.040700
     87 H50         -2.1170    -2.2760    -1.4480 hc         1 DU0       0.040700
     88 H51          9.8730     3.8230    -0.2180 ho         1 DU0       0.436500
     89 H52         12.5960     0.0930    -0.9140 ho         1 DU0       0.436500
@<TRIPOS>BOND
     1     1    19 1   
     2     1    38 1   
     3     1    39 1   
     4     1    40 1   
     5     2    17 1   
     6     2    20 1   
     7     2    41 1   
     8     2    42 1   
     9     3    11 1   
    10     3    21 1   
    11     3    30 1   
    12     3    43 1   
    13     4     5 1   
    14     4    22 2   
    15     4    28 1   
    16     5     6 1   
    17     5    44 1   
    18     5    45 1   
    19     6    26 1   
    20     6    35 1   
    21     6    46 1   
    22     7    23 1   
    23     7    35 1   
    24     7    47 1   
    25     7    48 1   
    26     8    23 1   
    27     8    24 1   
    28     8    25 1   
    29     8    49 1   
    30     9    10 1   
    31     9    50 1   
    32     9    51 1   
    33     9    52 1   
    34    10    11 1   
    35    10    14 1   
    36    10    32 1   
    37    11    12 1   
    38    11    53 1   
    39    12    13 1   
    40    12    54 1   
    41    12    55 1   
    42    13    14 1   
    43    13    34 1   
    44    13    56 1   
    45    14    15 1   
    46    14    57 1   
    47    15    16 1   
    48    15    17 1   
    49    15    58 1   
    50    16    59 1   
    51    16    60 1   
    52    16    61 1   
    53    17    33 1   
    54    17    34 1   
    55    18    19 1   
    56    18    33 1   
    57    18    62 1   
    58    18    63 1   
    59    19    20 1   
    60    19    64 1   
    61    20    65 1   
    62    20    66 1   
    63    21    22 1   
    64    21    67 1   
    65    21    68 1   
    66    22    69 1   
    67    23    70 1   
    68    23    71 1   
    69    24    36 1   
    70    24    72 1   
    71    24    73 1   
    72    25    37 1   
    73    25    74 1   
    74    25    75 1   
    75    26    27 1   
    76    26    76 1   
    77    26    77 1   
    78    27    28 1   
    79    27    78 1   
    80    27    79 1   
    81    28    29 1   
    82    28    30 1   
    83    29    80 1   
    84    29    81 1   
    85    29    82 1   
    86    30    31 1   
    87    30    83 1   
    88    31    32 1   
    89    31    84 1   
    90    31    85 1   
    91    32    86 1   
    92    32    87 1   
    93    36    88 1   
    94    37    89 1   
@<TRIPOS>SUBSTRUCTURE
     1 DU0         1 TEMP              0 ****  ****    0 ROOT
