@<TRIPOS>MOLECULE
DU0
   89    94     1     0     0
SMALL
abcg2


@<TRIPOS>ATOM
      1 C13         -9.6740     2.7930     0.0820 c3         1 DU0      -0.084100
      2 C15         -7.2530     0.0160     1.2680 c6         1 DU0      -0.083400
      3 C17         -0.6180     0.2130     0.2630 c6         1 DU0      -0.041700
      4 C20          2.2560     0.1660     0.3470 c2         1 DU0      -0.108400
      5 C21          3.7370     0.1690     0.6260 c6         1 DU0      -0.069200
      6 C22          4.4750    -0.9150    -0.1610 c6         1 DU0       0.179300
      7 C24          6.6590     0.0300    -0.2640 c3         1 DU0       0.165600
      8 C26          9.1490     0.6290    -0.4950 c3         1 DU0      -0.062700
      9 C01         -3.1010    -1.0990     1.5660 c3         1 DU0      -0.083100
     10 C02         -2.8670    -1.0210     0.0530 c5         1 DU0      -0.037000
     11 C03         -2.0160     0.1980    -0.3340 c5         1 DU0      -0.064700
     12 C04         -2.9490     1.3820    -0.0890 c5         1 DU0      -0.072400
     13 C05         -4.2880     0.8510    -0.6130 c5         1 DU0       0.161300
     14 C06         -4.1690    -0.6890    -0.7100 c5         1 DU0      -0.087700
     15 C07         -5.5110    -1.2040    -0.1750 c5         1 DU0      -0.065700
     16 C08         -6.1870    -2.2430    -1.0560 c3         1 DU0      -0.072100
     17 C09         -6.3260     0.0850     0.0620 c5         1 DU0       0.385000
     18 C11         -7.8470     1.5280    -1.0700 c6         1 DU0       0.165600
     19 C12         -8.8690     1.5020     0.0570 c6         1 DU0      -0.098700
     20 C14         -8.1480     1.2440     1.3760 c6         1 DU0      -0.069400
     21 C18          0.1680     1.4190    -0.2390 c6         1 DU0      -0.038200
     22 C19          1.6360     1.2910    -0.0040 c2         1 DU0      -0.217200
     23 C25          8.0910    -0.2900     0.1280 c3         1 DU0      -0.085400
     24 C27          8.8690     2.0780    -0.1170 c3         1 DU0       0.172100
     25 C51         10.5190     0.1370    -0.0400 c3         1 DU0       0.172100
     26 C75          3.8270    -2.2640     0.0860 c6         1 DU0      -0.072400
     27 C76          2.3450    -2.2300    -0.2630 c6         1 DU0      -0.066400
     28 C77          1.5340    -1.1620     0.4990 c6         1 DU0       0.003200
     29 C78          1.4730    -1.5170     1.9940 c3         1 DU0      -0.079100
     30 C79          0.1150    -1.0830    -0.1240 c6         1 DU0      -0.046700
     31 C80         -0.7250    -2.3370     0.1540 c6         1 DU0      -0.070400
     32 C81         -2.1380    -2.2710    -0.4280 c6         1 DU0      -0.062400
     33 O10         -7.0530     0.3560    -1.1110 os         1 DU0      -0.474000
     34 O16         -5.3660     1.0850     0.2810 os         1 DU0      -0.466000
     35 O23          5.8350    -1.0140     0.2030 os         1 DU0      -0.466000
     36 O28          9.8400     2.9430    -0.6580 oh         1 DU0      -0.640000
     37 O52         11.5500     0.6740    -0.8350 oh         1 DU0      -0.640000
     38 H1         -10.2230     2.9410    -0.8490 hc         1 DU0       0.034367
     39 H2         -10.3990     2.7830     0.8970 hc         1 DU0       0.034367
     40 H3          -9.0250     3.6600     0.2270 hc         1 DU0       0.034367
     41 H4          -7.8720    -0.8800     1.1650 hc         1 DU0       0.054700
     42 H5          -6.6580    -0.1150     2.1750 hc         1 DU0       0.054700
     43 H6          -0.6860     0.2820     1.3550 hc         1 DU0       0.056700
     44 H7           4.1380     1.1590     0.3970 hc         1 DU0       0.051200
     45 H8           3.9240    -0.0040     1.6930 hc         1 DU0       0.051200
     46 H9           4.3950    -0.6770    -1.2350 h1         1 DU0       0.034700
     47 H10          6.3470     0.9930     0.1590 h1         1 DU0       0.021700
     48 H11          6.5820     0.1230    -1.3580 h1         1 DU0       0.021700
     49 H12          9.0900     0.5250    -1.5850 hc         1 DU0       0.072700
     50 H13         -3.7290    -0.2870     1.9350 hc         1 DU0       0.036367
     51 H14         -3.5940    -2.0360     1.8340 hc         1 DU0       0.036367
     52 H15         -2.1710    -1.0640     2.1340 hc         1 DU0       0.036367
     53 H16         -1.8740     0.1290    -1.4240 hc         1 DU0       0.042700
     54 H17         -3.0140     1.6210     0.9760 hc         1 DU0       0.055700
     55 H18         -2.6320     2.2900    -0.6050 hc         1 DU0       0.055700
     56 H19         -4.5170     1.2900    -1.5910 h1         1 DU0       0.052700
     57 H20         -4.0320    -0.9880    -1.7540 hc         1 DU0       0.063700
     58 H21         -5.3680    -1.6540     0.8100 hc         1 DU0       0.061700
     59 H22         -5.5750    -3.1440    -1.1080 hc         1 DU0       0.038033
     60 H23         -7.1610    -2.5340    -0.6570 hc         1 DU0       0.038033
     61 H24         -6.3320    -1.8830    -2.0730 hc         1 DU0       0.038033
     62 H25         -8.3450     1.5910    -2.0400 h1         1 DU0       0.047200
     63 H26         -7.2180     2.4230    -0.9700 h1         1 DU0       0.047200
     64 H27         -9.5550     0.6650    -0.1250 hc         1 DU0       0.053700
     65 H28         -8.8750     1.1080     2.1810 hc         1 DU0       0.047700
     66 H29         -7.5520     2.1230     1.6450 hc         1 DU0       0.047700
     67 H30         -0.0210     1.5650    -1.3110 hc         1 DU0       0.047700
     68 H31         -0.1960     2.3330     0.2420 hc         1 DU0       0.047700
     69 H32          2.2290     2.1950    -0.1210 ha         1 DU0       0.168000
     70 H33          8.1830    -0.2660     1.2200 hc         1 DU0       0.054200
     71 H34          8.3030    -1.3170    -0.1810 hc         1 DU0       0.054200
     72 H35          7.8690     2.3540    -0.4760 h1         1 DU0       0.012450
     73 H36          8.8360     2.1460     0.9820 h1         1 DU0       0.012450
     74 H37         10.6500     0.3900     1.0230 h1         1 DU0       0.012450
     75 H38         10.5230    -0.9600    -0.0990 h1         1 DU0       0.012450
     76 H39          4.3230    -3.0300    -0.5150 hc         1 DU0       0.052200
     77 H40          3.9660    -2.5500     1.1340 hc         1 DU0       0.052200
     78 H41          2.2400    -2.0450    -1.3380 hc         1 DU0       0.042700
     79 H42          1.9190    -3.2190    -0.0790 hc         1 DU0       0.042700
     80 H43          0.7690    -0.8730     2.5240 hc         1 DU0       0.035033
     81 H44          1.1670    -2.5520     2.1500 hc         1 DU0       0.035033
     82 H45          2.4400    -1.3950     2.4810 hc         1 DU0       0.035033
     83 H46          0.2600    -1.0290    -1.2130 hc         1 DU0       0.045700
     84 H47         -0.2160    -3.2150    -0.2510 hc         1 DU0       0.040700
     85 H48         -0.7970    -2.5060     1.2300 hc         1 DU0       0.040700
     86 H49         -2.6870    -3.1770    -0.1520 hc         1 DU0       0.040700
     87 H50         -2.0890    -2.2560    -1.5230 hc         1 DU0       0.040700
     88 H51          9.5720     3.8430    -0.4490 ho         1 DU0       0.436500
     89 H52         12.3710     0.2490    -0.5710 ho         1 DU0       0.436500
@<TRIPOS>BOND
     1     1    19 1   
     2     1    38 1   
     3     1    39 1   
     4     1    40 1   
     5     2    17 1   
     6     2    20 1   
     7     2    41 1   
     8     2    42 1   
     9     3    11 1   
    10     3    21 1   
    11     3    30 1   
    12     3    43 1   
    13     4     5 1   
    14     4    22 2   
    15     4    28 1   
    16     5     6 1   
    17     5    44 1   
    18     5    45 1   
    19     6    26 1   
    20     6    35 1   
    21     6    46 1   
    22     7    23 1   
    23     7    35 1   
    24     7    47 1   
    25     7    48 1   
    26     8    23 1   
    27     8    24 1   
    28     8    25 1   
    29     8    49 1   
    30     9    10 1   
    31     9    50 1   
    32     9    51 1   
    33     9    52 1   
    34    10    11 1   
    35    10    14 1   
    36    10    32 1   
    37    11    12 1   
    38    11    53 1   
    39    12    13 1   
    40    12    54 1   
    41    12    55 1   
    42    13    14 1   
    43    13    34 1   
    44    13    56 1   
    45    14    15 1   
    46    14    57 1   
    47    15    16 1   
    48    15    17 1   
    49    15    58 1   
    50    16    59 1   
    51    16    60 1   
    52    16    61 1   
    53    17    33 1   
    54    17    34 1   
    55    18    19 1   
    56    18    33 1   
    57    18    62 1   
    58    18    63 1   
    59    19    20 1   
    60    19    64 1   
    61    20    65 1   
    62    20    66 1   
    63    21    22 1   
    64    21    67 1   
    65    21    68 1   
    66    22    69 1   
    67    23    70 1   
    68    23    71 1   
    69    24    36 1   
    70    24    72 1   
    71    24    73 1   
    72    25    37 1   
    73    25    74 1   
    74    25    75 1   
    75    26    27 1   
    76    26    76 1   
    77    26    77 1   
    78    27    28 1   
    79    27    78 1   
    80    27    79 1   
    81    28    29 1   
    82    28    30 1   
    83    29    80 1   
    84    29    81 1   
    85    29    82 1   
    86    30    31 1   
    87    30    83 1   
    88    31    32 1   
    89    31    84 1   
    90    31    85 1   
    91    32    86 1   
    92    32    87 1   
    93    36    88 1   
    94    37    89 1   
@<TRIPOS>SUBSTRUCTURE
     1 DU0         1 TEMP              0 ****  ****    0 ROOT
