@<TRIPOS>MOLECULE
DU1
   66    69     1     0     0
SMALL
No Charge or Current Charge


@<TRIPOS>ATOM
      1 O4           2.5050    -3.7290    -1.2750 o          1 DU1      -0.557000
      2 C3           3.1650    -2.8150    -0.8000 c          1 DU1       0.621000
      3 N1           2.8590    -1.4730    -1.1010 n          1 DU1      -0.362300
      4 C14          3.6150    -0.4660    -0.5540 cc         1 DU1       0.435900
      5 C22          4.6470    -0.7190     0.2720 cd         1 DU1      -0.352600
      6 N4           5.1590     0.5280     0.6140 na         1 DU1      -0.243500
      7 C15          4.3850     1.4690    -0.0430 cd         1 DU1       0.472800
      8 C16          4.5500     2.9740     0.0160 c6         1 DU1      -0.107000
      9 C21          5.9390     3.4120    -0.5330 c6         1 DU1      -0.071400
     10 C20          6.1110     4.9500    -0.4680 c6         1 DU1      -0.074400
     11 C19          5.8950     5.4780     0.9720 c6         1 DU1      -0.077400
     12 C18          4.5150     5.0460     1.5260 c6         1 DU1      -0.074400
     13 C17          4.3410     3.5080     1.4620 c6         1 DU1      -0.071400
     14 N3           3.4420     0.8680    -0.7580 nc         1 DU1      -0.711000
     15 C23          5.0400    -2.0750     0.6470 c          1 DU1       0.632600
     16 O3           5.9800    -2.2990     1.3960 o          1 DU1      -0.534000
     17 N            4.2410    -3.0750     0.0740 n          1 DU1      -0.372400
     18 C2           4.5890    -4.4930     0.3660 c3         1 DU1       0.097000
     19 C1           3.8490    -5.0430     1.6040 c3         1 DU1      -0.094400
     20 C            4.2040    -6.5100     1.9140 c3         1 DU1      -0.087100
     21 C4           1.7330    -1.1680    -2.0190 c3         1 DU1       0.119000
     22 C5           0.4220    -0.8590    -1.2680 c3         1 DU1      -0.117400
     23 C6          -0.7410    -0.5240    -2.2180 c3         1 DU1       0.101000
     24 N2          -1.9720    -0.2380    -1.4810 ns         1 DU1      -0.496900
     25 C7          -3.1760     0.0800    -2.0730 c          1 DU1       0.604700
     26 O2          -3.2800     0.1400    -3.2910 o          1 DU1      -0.587100
     27 C8          -4.3490     0.3480    -1.1460 ca         1 DU1      -0.086600
     28 C13         -4.2310     0.2790     0.2650 ca         1 DU1      -0.095000
     29 C12         -5.3380     0.5340     1.0930 ca         1 DU1      -0.013000
     30 C11         -6.5880     0.8640     0.5290 ca         1 DU1      -0.320500
     31 S           -8.0170     1.1880     1.5960 sy         1 DU1       1.340400
     32 O1          -7.5630     1.5510     2.9480 o          1 DU1      -0.535000
     33 O           -9.0230     1.9740     0.8640 o          1 DU1      -0.535000
     34 C10         -6.7170     0.9340    -0.8740 ca         1 DU1      -0.013000
     35 C9          -5.6080     0.6790    -1.6980 ca         1 DU1      -0.095000
     36 H1           5.9430     0.7320     1.2230 hn         1 DU1       0.377000
     37 H2           3.7790     3.4270    -0.6240 hc         1 DU1       0.088700
     38 H3           6.7420     2.9300     0.0430 hc         1 DU1       0.044700
     39 H4           6.0550     3.0710    -1.5710 hc         1 DU1       0.044700
     40 H5           7.1140     5.2280    -0.8200 hc         1 DU1       0.045950
     41 H6           5.3970     5.4320    -1.1500 hc         1 DU1       0.045950
     42 H7           6.6920     5.1010     1.6280 hc         1 DU1       0.042700
     43 H8           5.9750     6.5740     0.9830 hc         1 DU1       0.042700
     44 H9           4.4050     5.3910     2.5630 hc         1 DU1       0.045950
     45 H10          3.7160     5.5330     0.9490 hc         1 DU1       0.045950
     46 H11          3.3380     3.2360     1.8200 hc         1 DU1       0.044700
     47 H12          5.0560     3.0320     2.1480 hc         1 DU1       0.044700
     48 H14          4.3570    -5.1220    -0.5030 h1         1 DU1       0.071700
     49 H15          5.6710    -4.5850     0.5250 h1         1 DU1       0.071700
     50 H16          4.0910    -4.4240     2.4760 hc         1 DU1       0.049200
     51 H17          2.7660    -4.9630     1.4440 hc         1 DU1       0.049200
     52 H18          3.6560    -6.8580     2.7980 hc         1 DU1       0.035367
     53 H19          3.9410    -7.1600     1.0700 hc         1 DU1       0.035367
     54 H20          5.2770    -6.6160     2.1120 hc         1 DU1       0.035367
     55 H21          2.0040    -0.3010    -2.6380 h1         1 DU1       0.075700
     56 H22          1.5700    -2.0030    -2.7130 h1         1 DU1       0.075700
     57 H23          0.1500    -1.7260    -0.6530 hc         1 DU1       0.058700
     58 H24          0.5860    -0.0160    -0.5870 hc         1 DU1       0.058700
     59 H25         -0.4800     0.3520    -2.8270 h1         1 DU1       0.059200
     60 H26         -0.9220    -1.3720    -2.8940 h1         1 DU1       0.059200
     61 H27         -1.9480    -0.2710    -0.4700 hn         1 DU1       0.316500
     62 H28         -3.2870     0.0280     0.7410 ha         1 DU1       0.134500
     63 H29         -5.2170     0.4710     2.1750 ha         1 DU1       0.144000
     64 H32         -7.6730     1.1840    -1.3330 ha         1 DU1       0.144000
     65 H33         -5.7330     0.7400    -2.7770 ha         1 DU1       0.134500
     66 F1          -8.6350    -0.3150     1.7240 f          1 DU1      -0.263900
@<TRIPOS>BOND
     1     1     2 2   
     2     2     3 1   
     3     2    17 1   
     4     3     4 1   
     5     3    21 1   
     6     4     5 2   
     7     4    14 1   
     8     5     6 1   
     9     5    15 1   
    10     6     7 1   
    11     6    36 1   
    12     7     8 1   
    13     7    14 2   
    14     8     9 1   
    15     8    13 1   
    16     8    37 1   
    17     9    10 1   
    18     9    38 1   
    19     9    39 1   
    20    10    11 1   
    21    10    40 1   
    22    10    41 1   
    23    11    12 1   
    24    11    42 1   
    25    11    43 1   
    26    12    13 1   
    27    12    44 1   
    28    12    45 1   
    29    13    46 1   
    30    13    47 1   
    31    15    16 2   
    32    15    17 1   
    33    17    18 1   
    34    18    19 1   
    35    18    48 1   
    36    18    49 1   
    37    19    20 1   
    38    19    50 1   
    39    19    51 1   
    40    20    52 1   
    41    20    53 1   
    42    20    54 1   
    43    21    22 1   
    44    21    55 1   
    45    21    56 1   
    46    22    23 1   
    47    22    57 1   
    48    22    58 1   
    49    23    24 1   
    50    23    59 1   
    51    23    60 1   
    52    24    25 1   
    53    24    61 1   
    54    25    26 2   
    55    25    27 1   
    56    27    28 ar  
    57    27    35 ar  
    58    28    29 ar  
    59    28    62 1   
    60    29    30 ar  
    61    29    63 1   
    62    30    31 1   
    63    30    34 ar  
    64    31    32 2   
    65    31    33 2   
    66    31    66 1   
    67    34    35 ar  
    68    34    64 1   
    69    35    65 1   
@<TRIPOS>SUBSTRUCTURE
     1 DU1         1 TEMP              0 ****  ****    0 ROOT
