@<TRIPOS>MOLECULE
DU1
   66    69     1     0     0
SMALL
abcg2


@<TRIPOS>ATOM
      1 O4           2.2610    -3.3990    -1.1920 o          1 DU1      -0.557000
      2 C3           2.9670    -2.5240    -0.7280 c          1 DU1       0.621000
      3 N1           2.7740    -1.2040    -1.0590 n          1 DU1      -0.362300
      4 C14          3.5550    -0.2450    -0.4820 cc         1 DU1       0.435900
      5 C22          4.5540    -0.5660     0.3940 cd         1 DU1      -0.352600
      6 N4           5.1010     0.6410     0.7500 na         1 DU1      -0.243500
      7 C15          4.4280     1.5960     0.0900 cd         1 DU1       0.472800
      8 C16          4.7660     3.0450     0.1560 c6         1 DU1      -0.107000
      9 C21          5.9020     3.3740    -0.8260 c6         1 DU1      -0.071400
     10 C20          6.2290     4.8630    -0.8030 c6         1 DU1      -0.074400
     11 C19          6.5700     5.3360     0.6060 c6         1 DU1      -0.077400
     12 C18          5.4470     5.0040     1.5820 c6         1 DU1      -0.074400
     13 C17          5.1190     3.5140     1.5710 c6         1 DU1      -0.071400
     14 N3           3.4690     1.0830    -0.6710 nc         1 DU1      -0.711000
     15 C23          4.8390    -1.8980     0.7940 c          1 DU1       0.632600
     16 O3           5.6940    -2.2420     1.5920 o          1 DU1      -0.534000
     17 N            4.0040    -2.8210     0.1520 n          1 DU1      -0.372400
     18 C2           4.1750    -4.2320     0.5030 c3         1 DU1       0.097000
     19 C1           3.3010    -4.6580     1.6750 c3         1 DU1      -0.094400
     20 C            3.4990    -6.1310     2.0010 c3         1 DU1      -0.087100
     21 C4           1.6790    -0.8340    -1.9460 c3         1 DU1       0.119000
     22 C5           0.3580    -0.6960    -1.2030 c3         1 DU1      -0.117400
     23 C6          -0.7540    -0.2890    -2.1580 c3         1 DU1       0.101000
     24 N2          -2.0270    -0.2690    -1.4700 ns         1 DU1      -0.496900
     25 C7          -3.0540     0.5070    -1.8420 c          1 DU1       0.604700
     26 O2          -3.0140     1.2910    -2.7790 o          1 DU1      -0.587100
     27 C8          -4.3020     0.3660    -1.0200 ca         1 DU1      -0.086600
     28 C13         -4.2650     0.0630     0.3380 ca         1 DU1      -0.095000
     29 C12         -5.4370    -0.0270     1.0700 ca         1 DU1      -0.013000
     30 C11         -6.6440     0.1810     0.4190 ca         1 DU1      -0.320500
     31 S           -8.1350     0.0480     1.3320 sy         1 DU1       1.340400
     32 O1          -7.8990     0.2300     2.7380 o          1 DU1      -0.535000
     33 O           -9.2180     0.7090     0.6570 o          1 DU1      -0.535000
     34 C10         -6.7060     0.4920    -0.9330 ca         1 DU1      -0.013000
     35 C9          -5.5250     0.5940    -1.6450 ca         1 DU1      -0.095000
     36 H1           5.8750     0.7760     1.3820 hn         1 DU1       0.377000
     37 H2           3.8690     3.5810    -0.1720 hc         1 DU1       0.088700
     38 H3           6.7930     2.8000    -0.5480 hc         1 DU1       0.044700
     39 H4           5.6230     3.0600    -1.8330 hc         1 DU1       0.044700
     40 H5           7.0570     5.0670    -1.4860 hc         1 DU1       0.045950
     41 H6           5.3700     5.4280    -1.1800 hc         1 DU1       0.045950
     42 H7           7.4930     4.8480     0.9370 hc         1 DU1       0.042700
     43 H8           6.7670     6.4100     0.6080 hc         1 DU1       0.042700
     44 H9           5.7180     5.3110     2.5940 hc         1 DU1       0.045950
     45 H10          4.5510     5.5720     1.3120 hc         1 DU1       0.045950
     46 H11          4.2930     3.3030     2.2530 hc         1 DU1       0.044700
     47 H12          5.9880     2.9590     1.9430 hc         1 DU1       0.044700
     48 H14          3.9560    -4.8340    -0.3760 h1         1 DU1       0.071700
     49 H15          5.2250    -4.3880     0.7430 h1         1 DU1       0.071700
     50 H16          3.5450    -4.0490     2.5490 hc         1 DU1       0.049200
     51 H17          2.2520    -4.4670     1.4390 hc         1 DU1       0.049200
     52 H18          2.8750    -6.4340     2.8420 hc         1 DU1       0.035367
     53 H19          3.2380    -6.7630     1.1510 hc         1 DU1       0.035367
     54 H20          4.5360    -6.3430     2.2650 hc         1 DU1       0.035367
     55 H21          1.9540     0.1100    -2.4150 h1         1 DU1       0.075700
     56 H22          1.6050    -1.5800    -2.7340 h1         1 DU1       0.075700
     57 H23          0.1060    -1.6490    -0.7300 hc         1 DU1       0.058700
     58 H24          0.4520     0.0500    -0.4100 hc         1 DU1       0.058700
     59 H25         -0.5600     0.7040    -2.5630 h1         1 DU1       0.059200
     60 H26         -0.7930    -0.9820    -3.0060 h1         1 DU1       0.059200
     61 H27         -2.1940    -1.0070    -0.8050 hn         1 DU1       0.316500
     62 H28         -3.3250    -0.0810     0.8540 ha         1 DU1       0.134500
     63 H29         -5.3940    -0.2450     2.1280 ha         1 DU1       0.144000
     64 H32         -7.6510     0.6610    -1.4310 ha         1 DU1       0.144000
     65 H33         -5.5600     0.8450    -2.6960 ha         1 DU1       0.134500
     66 F1          -8.4070    -1.5180     1.1450 f          1 DU1      -0.263900
@<TRIPOS>BOND
     1     1     2 2   
     2     2     3 1   
     3     2    17 1   
     4     3     4 1   
     5     3    21 1   
     6     4     5 2   
     7     4    14 1   
     8     5     6 1   
     9     5    15 1   
    10     6     7 1   
    11     6    36 1   
    12     7     8 1   
    13     7    14 2   
    14     8     9 1   
    15     8    13 1   
    16     8    37 1   
    17     9    10 1   
    18     9    38 1   
    19     9    39 1   
    20    10    11 1   
    21    10    40 1   
    22    10    41 1   
    23    11    12 1   
    24    11    42 1   
    25    11    43 1   
    26    12    13 1   
    27    12    44 1   
    28    12    45 1   
    29    13    46 1   
    30    13    47 1   
    31    15    16 2   
    32    15    17 1   
    33    17    18 1   
    34    18    19 1   
    35    18    48 1   
    36    18    49 1   
    37    19    20 1   
    38    19    50 1   
    39    19    51 1   
    40    20    52 1   
    41    20    53 1   
    42    20    54 1   
    43    21    22 1   
    44    21    55 1   
    45    21    56 1   
    46    22    23 1   
    47    22    57 1   
    48    22    58 1   
    49    23    24 1   
    50    23    59 1   
    51    23    60 1   
    52    24    25 1   
    53    24    61 1   
    54    25    26 2   
    55    25    27 1   
    56    27    28 ar  
    57    27    35 ar  
    58    28    29 ar  
    59    28    62 1   
    60    29    30 ar  
    61    29    63 1   
    62    30    31 1   
    63    30    34 ar  
    64    31    32 2   
    65    31    33 2   
    66    31    66 1   
    67    34    35 ar  
    68    34    64 1   
    69    35    65 1   
@<TRIPOS>SUBSTRUCTURE
     1 DU1         1 TEMP              0 ****  ****    0 ROOT
