@<TRIPOS>MOLECULE
DU2
   52    55     1     0     0
SMALL
bcc


@<TRIPOS>ATOM
      1 N1          -3.0560    -0.5020     0.4360 n          1 DU2      -0.410000
      2 C2          -4.4080    -0.3330     0.6360 c          1 DU2       0.820500
      3 O2          -5.1710    -1.2700     0.7660 o          1 DU2      -0.652500
      4 N3          -4.8330     0.9680     0.6750 ns         1 DU2      -0.601500
      5 C4          -4.0620     2.1160     0.5790 c          1 DU2       0.730700
      6 O4          -4.5830     3.2170     0.6250 o          1 DU2      -0.614500
      7 C5          -2.6560     1.8430     0.4440 cc         1 DU2      -0.348200
      8 C6          -2.2180     0.5710     0.3880 cd         1 DU2       0.061600
      9 C1          -2.5670    -1.9090     0.3620 c5         1 DU2       0.328500
     10 C17          2.5240    -0.2130    -0.6790 c3         1 DU2       0.210500
     11 C18          3.6700    -0.3800     0.2980 ca         1 DU2      -0.110300
     12 C19          4.9390    -0.7290    -0.1450 ca         1 DU2      -0.105500
     13 C7          -2.9870    -2.6030    -0.9250 c5         1 DU2      -0.159400
     14 C20          5.9840    -0.8890     0.7590 ca         1 DU2      -0.134500
     15 C21          5.7620    -0.7060     2.1150 ca         1 DU2      -0.118000
     16 C22          4.4910    -0.3600     2.5650 ca         1 DU2      -0.134500
     17 C23          3.4520    -0.1960     1.6630 ca         1 DU2      -0.105500
     18 C24          2.0220     1.2030    -0.6270 cc         1 DU2       0.395800
     19 N25          1.0070     1.6420     0.0770 nd         1 DU2      -0.665000
     20 C26          0.9750     2.9920    -0.1210 cd         1 DU2       0.289200
     21 C27          1.9840     3.3680    -0.9560 cc         1 DU2      -0.257600
     22 N28          2.6440     2.2150    -1.2790 na         1 DU2      -0.181900
     23 C29          3.8220     2.1270    -2.1140 c3         1 DU2       0.027600
     24 C3          -1.8450    -2.2490    -1.8700 c5         1 DU2       0.113100
     25 C8          -0.6460    -2.2270    -0.9240 c5         1 DU2       0.136100
     26 O1          -1.1790    -1.9080     0.3650 os         1 DU2      -0.381600
     27 O41         -1.6150    -3.1620    -2.9070 oh         1 DU2      -0.583800
     28 C9           0.4200    -1.2330    -1.3350 c3         1 DU2       0.153800
     29 N5           1.4690    -1.1450    -0.3410 n7         1 DU2      -0.779200
     30 HN3         -5.8310     1.0920     0.7990 hn         1 DU2       0.338500
     31 H5          -1.9540     2.6600     0.3970 ha         1 DU2       0.173000
     32 H6          -1.1570     0.3700     0.3210 h4         1 DU2       0.206000
     33 H1          -2.9340    -2.4140     1.2560 h2         1 DU2       0.107700
     34 H17          2.9210    -0.3970    -1.6920 h1         1 DU2       0.023700
     35 H19          5.1150    -0.8820    -1.2040 ha         1 DU2       0.142000
     36 H2          -2.9970    -3.6820    -0.7510 hc         1 DU2       0.083700
     37 H2'A        -3.9680    -2.3120    -1.2920 hc         1 DU2       0.083700
     38 H20          6.9680    -1.1610     0.4000 ha         1 DU2       0.133000
     39 H21          6.5720    -0.8310     2.8220 ha         1 DU2       0.132000
     40 H22          4.3130    -0.2170     3.6230 ha         1 DU2       0.133000
     41 H23          2.4660     0.0820     2.0120 ha         1 DU2       0.142000
     42 H26          0.2300     3.6210     0.3430 h4         1 DU2       0.040100
     43 H27          2.2810     4.3270    -1.3480 h4         1 DU2       0.176000
     44 H29          3.7390     1.2910    -2.8040 h1         1 DU2       0.053700
     45 H29A         3.9130     3.0410    -2.6940 h1         1 DU2       0.053700
     46 H29B         4.7220     2.0020    -1.5140 h1         1 DU2       0.053700
     47 H3          -2.0070    -1.2380    -2.2700 h1         1 DU2       0.047700
     48 H4          -0.2120    -3.2350    -0.8700 h1         1 DU2       0.074700
     49 HO41        -2.2880    -3.0300    -3.5830 ho         1 DU2       0.416000
     50 H7           0.7870    -1.5370    -2.3280 h1         1 DU2       0.046200
     51 H5'A        -0.0340    -0.2470    -1.4640 h1         1 DU2       0.046200
     52 HN5          1.8890    -2.0590    -0.2180 hn         1 DU2       0.367800
@<TRIPOS>BOND
     1     1     2 1   
     2     1     8 1   
     3     1     9 1   
     4     2     3 2   
     5     2     4 1   
     6     4     5 1   
     7     4    30 1   
     8     5     6 2   
     9     5     7 1   
    10     7     8 2   
    11     7    31 1   
    12     8    32 1   
    13     9    13 1   
    14     9    26 1   
    15     9    33 1   
    16    10    11 1   
    17    10    18 1   
    18    10    29 1   
    19    10    34 1   
    20    11    12 ar  
    21    11    17 ar  
    22    12    14 ar  
    23    12    35 1   
    24    13    24 1   
    25    13    36 1   
    26    13    37 1   
    27    14    15 ar  
    28    14    38 1   
    29    15    16 ar  
    30    15    39 1   
    31    16    17 ar  
    32    16    40 1   
    33    17    41 1   
    34    18    19 2   
    35    18    22 1   
    36    19    20 1   
    37    20    21 2   
    38    20    42 1   
    39    21    22 1   
    40    21    43 1   
    41    22    23 1   
    42    23    44 1   
    43    23    45 1   
    44    23    46 1   
    45    24    25 1   
    46    24    27 1   
    47    24    47 1   
    48    25    26 1   
    49    25    28 1   
    50    25    48 1   
    51    27    49 1   
    52    28    29 1   
    53    28    50 1   
    54    28    51 1   
    55    29    52 1   
@<TRIPOS>SUBSTRUCTURE
     1 DU2         1 TEMP              0 ****  ****    0 ROOT
