@<TRIPOS>MOLECULE
DU2
   52    55     1     0     0
SMALL
No Charge or Current Charge


@<TRIPOS>ATOM
      1 N1          -3.7310    -0.6160     0.5090 n          1 DU2      -0.343000
      2 C2          -4.8180    -1.0520     1.2890 c          1 DU2       0.611000
      3 O2          -4.9520    -2.2040     1.6680 o          1 DU2      -0.577000
      4 N3          -5.7450    -0.1090     1.6080 ns         1 DU2      -0.467500
      5 C4          -5.7560     1.2040     1.2680 c          1 DU2       0.588200
      6 O4          -6.6470     1.9590     1.6130 o          1 DU2      -0.539000
      7 C5          -4.6070     1.6070     0.4620 cc         1 DU2      -0.398200
      8 C6          -3.6240     0.7150     0.0980 cd         1 DU2       0.011600
      9 C1          -2.6970    -1.6140     0.1360 c5         1 DU2       0.351700
     10 C17          2.8940    -0.1170    -0.5710 c3         1 DU2       0.210500
     11 C18          3.9000    -0.4260     0.5360 ca         1 DU2      -0.110300
     12 C19          5.0810    -1.1410     0.2450 ca         1 DU2      -0.087500
     13 C7          -3.0070    -2.0800    -1.3250 c5         1 DU2      -0.159400
     14 C20          6.0140    -1.4150     1.2610 ca         1 DU2      -0.116500
     15 C21          5.7740    -0.9780     2.5750 ca         1 DU2      -0.100000
     16 C22          4.6000    -0.2660     2.8720 ca         1 DU2      -0.116500
     17 C23          3.6670     0.0090     1.8570 ca         1 DU2      -0.087500
     18 C24          2.7680     1.4000    -0.8210 cc         1 DU2       0.395800
     19 N25          1.8940     2.2260    -0.2450 nd         1 DU2      -0.665000
     20 C26          2.1580     3.4780    -0.7540 cd         1 DU2       0.223900
     21 C27          3.2020     3.4290    -1.6390 cc         1 DU2      -0.225000
     22 N28          3.5960     2.1080    -1.6780 na         1 DU2      -0.160500
     23 C29          4.7070     1.5650    -2.4760 c3         1 DU2       0.056900
     24 C3          -1.7900    -1.5480    -2.1290 c5         1 DU2       0.136300
     25 C8          -0.6950    -1.5900    -1.0270 c5         1 DU2       0.159300
     26 O1          -1.3890    -1.0080     0.0950 os         1 DU2      -0.428000
     27 O41         -1.4960    -2.3750    -3.2580 oh         1 DU2      -0.706000
     28 C9           0.6000    -0.7960    -1.3650 c3         1 DU2       0.153800
     29 N5           1.6150    -0.8250    -0.2790 n7         1 DU2      -0.834400
     30 HN3         -6.5210    -0.4270     2.1650 hn         1 DU2       0.338500
     31 H5          -4.5780     2.6510     0.1720 ha         1 DU2       0.223000
     32 H6          -2.7430     0.9590    -0.4950 h4         1 DU2       0.256000
     33 H1          -2.7180    -2.4490     0.8510 h2         1 DU2       0.107700
     34 H17          3.2950    -0.5510    -1.4970 h1         1 DU2       0.023700
     35 H19          5.2800    -1.4850    -0.7680 ha         1 DU2       0.124000
     36 H2          -3.0640    -3.1740    -1.3580 hc         1 DU2       0.083700
     37 H2'A        -3.9590    -1.7010    -1.7130 hc         1 DU2       0.083700
     38 H20          6.9230    -1.9660     1.0300 ha         1 DU2       0.115000
     39 H21          6.4970    -1.1900     3.3600 ha         1 DU2       0.114000
     40 H22          4.4120     0.0720     3.8890 ha         1 DU2       0.115000
     41 H23          2.7590     0.5590     2.0960 ha         1 DU2       0.124000
     42 H26          1.5840     4.3470    -0.4540 h4         1 DU2       0.040100
     43 H27          3.6750     4.2130    -2.2170 h4         1 DU2       0.158000
     44 H29          4.3200     0.8360    -3.1990 h1         1 DU2       0.053700
     45 H29A         5.2090     2.3760    -3.0190 h1         1 DU2       0.053700
     46 H29B         5.4310     1.0740    -1.8150 h1         1 DU2       0.053700
     47 H3          -1.9600    -0.5090    -2.4470 h1         1 DU2       0.047700
     48 H4          -0.4250    -2.6270    -0.7830 h1         1 DU2       0.074700
     49 HO41        -2.2420    -2.2750    -3.8950 ho         1 DU2       0.515000
     50 H7           1.0240    -1.2220    -2.2840 h1         1 DU2       0.046200
     51 H5'A         0.3130     0.2400    -1.5940 h1         1 DU2       0.046200
     52 HN5          1.8450    -1.8030    -0.0750 hn         1 DU2       0.423000
@<TRIPOS>BOND
     1     1     2 1   
     2     1     8 1   
     3     1     9 1   
     4     2     3 2   
     5     2     4 1   
     6     4     5 1   
     7     4    30 1   
     8     5     6 2   
     9     5     7 1   
    10     7     8 2   
    11     7    31 1   
    12     8    32 1   
    13     9    13 1   
    14     9    26 1   
    15     9    33 1   
    16    10    11 1   
    17    10    18 1   
    18    10    29 1   
    19    10    34 1   
    20    11    12 ar  
    21    11    17 ar  
    22    12    14 ar  
    23    12    35 1   
    24    13    24 1   
    25    13    36 1   
    26    13    37 1   
    27    14    15 ar  
    28    14    38 1   
    29    15    16 ar  
    30    15    39 1   
    31    16    17 ar  
    32    16    40 1   
    33    17    41 1   
    34    18    19 2   
    35    18    22 1   
    36    19    20 1   
    37    20    21 2   
    38    20    42 1   
    39    21    22 1   
    40    21    43 1   
    41    22    23 1   
    42    23    44 1   
    43    23    45 1   
    44    23    46 1   
    45    24    25 1   
    46    24    27 1   
    47    24    47 1   
    48    25    26 1   
    49    25    28 1   
    50    25    48 1   
    51    27    49 1   
    52    28    29 1   
    53    28    50 1   
    54    28    51 1   
    55    29    52 1   
@<TRIPOS>SUBSTRUCTURE
     1 DU2         1 TEMP              0 ****  ****    0 ROOT
