@<TRIPOS>MOLECULE
DU3
   52    55     1     0     0
SMALL
No Charge or Current Charge


@<TRIPOS>ATOM
      1 N1           3.5100    -0.5300    -0.5790 n          1 DU3      -0.339000
      2 C2           4.5970    -0.7970    -1.4340 c          1 DU3       0.613000
      3 O2           4.7680    -1.8720    -1.9840 o          1 DU3      -0.568000
      4 N3           5.4770     0.2230    -1.6230 ns         1 DU3      -0.468500
      5 C4           5.4420     1.4700    -1.0890 c          1 DU3       0.589200
      6 O4           6.2940     2.3060    -1.3320 o          1 DU3      -0.529000
      7 C5           4.2970     1.6960    -0.2120 cc         1 DU3      -0.394200
      8 C6           3.3610     0.7170     0.0290 cd         1 DU3       0.010600
      9 C1           2.5250    -1.6160    -0.3440 c5         1 DU3       0.348700
     10 C17         -3.0500    -0.3540     0.6150 c3         1 DU3       0.276100
     11 C18         -2.8080     1.1260     0.9370 ca         1 DU3      -0.090800
     12 C19         -3.4570     1.7150     2.0420 ca         1 DU3      -0.096500
     13 C7           2.8760    -2.2700     1.0330 c5         1 DU3      -0.161400
     14 C20         -3.2520     3.0710     2.3510 ca         1 DU3      -0.115000
     15 C21         -2.3970     3.8520     1.5570 ca         1 DU3      -0.106000
     16 C22         -1.7470     3.2760     0.4530 ca         1 DU3      -0.115000
     17 C23         -1.9520     1.9210     0.1430 ca         1 DU3      -0.096500
     18 C24         -4.1070    -0.5130    -0.4800 ca         1 DU3      -0.090800
     19 C25         -3.7950    -0.2820    -1.8380 ca         1 DU3      -0.096500
     20 C26         -4.7800    -0.4230    -2.8300 ca         1 DU3      -0.115000
     21 C27         -6.0880    -0.7940    -2.4760 ca         1 DU3      -0.106000
     22 C28         -6.4090    -1.0230    -1.1280 ca         1 DU3      -0.115000
     23 C29         -5.4240    -0.8820    -0.1350 ca         1 DU3      -0.096500
     24 C3           1.6640    -1.8890     1.9220 c5         1 DU3       0.135300
     25 O3           1.4220    -2.8640     2.9390 oh         1 DU3      -0.705000
     26 C8           0.5450    -1.8250     0.8440 c5         1 DU3       0.161300
     27 O1           1.1940    -1.0780    -0.2060 os         1 DU3      -0.439000
     28 C9          -0.7640    -1.1240     1.3060 c3         1 DU3       0.160800
     29 N5          -1.8070    -1.0600     0.2470 n7         1 DU3      -0.863400
     30 H5           4.2320     2.6830     0.2330 ha         1 DU3       0.225000
     31 H6           2.4860     0.8300     0.6680 h4         1 DU3       0.225000
     32 H1           2.5710    -2.3380    -1.1710 h2         1 DU3       0.108700
     33 H17         -3.4480    -0.8280     1.5220 h1         1 DU3       0.029700
     34 H19         -4.1250     1.1200     2.6630 ha         1 DU3       0.119500
     35 H2           2.9610    -3.3560     0.9130 hc         1 DU3       0.083700
     36 H2'A         3.8270    -1.9230     1.4530 hc         1 DU3       0.083700
     37 H20         -3.7580     3.5160     3.2050 ha         1 DU3       0.114000
     38 H21         -2.2380     4.9020     1.7960 ha         1 DU3       0.114000
     39 H22         -1.0830     3.8790    -0.1630 ha         1 DU3       0.114000
     40 H23         -1.4400     1.4850    -0.7110 ha         1 DU3       0.119500
     41 H25         -2.7860     0.0050    -2.1240 ha         1 DU3       0.119500
     42 H26         -4.5300    -0.2440    -3.8730 ha         1 DU3       0.114000
     43 H27         -6.8510    -0.9020    -3.2440 ha         1 DU3       0.114000
     44 H28         -7.4220    -1.3080    -0.8520 ha         1 DU3       0.114000
     45 H29         -5.6860    -1.0590     0.9060 ha         1 DU3       0.119500
     46 H3           1.8080    -0.8950     2.3700 h1         1 DU3       0.044700
     47 HO3          2.1790    -2.8210     3.5700 ho         1 DU3       0.516000
     48 H4           0.3020    -2.8300     0.4720 h1         1 DU3       0.075700
     49 H7          -1.1500    -1.6660     2.1800 h1         1 DU3       0.045700
     50 H5'A        -0.5000    -0.1130     1.6460 h1         1 DU3       0.045700
     51 HN5         -2.0650    -2.0170    -0.0130 hn         1 DU3       0.424000
     52 HN3          6.2520     0.0260    -2.2340 hn         1 DU3       0.341500
@<TRIPOS>BOND
     1     1     2 1   
     2     1     8 1   
     3     1     9 1   
     4     2     3 2   
     5     2     4 1   
     6     4     5 1   
     7     4    52 1   
     8     5     6 2   
     9     5     7 1   
    10     7     8 2   
    11     7    30 1   
    12     8    31 1   
    13     9    13 1   
    14     9    27 1   
    15     9    32 1   
    16    10    11 1   
    17    10    18 1   
    18    10    29 1   
    19    10    33 1   
    20    11    12 ar  
    21    11    17 ar  
    22    12    14 ar  
    23    12    34 1   
    24    13    24 1   
    25    13    35 1   
    26    13    36 1   
    27    14    15 ar  
    28    14    37 1   
    29    15    16 ar  
    30    15    38 1   
    31    16    17 ar  
    32    16    39 1   
    33    17    40 1   
    34    18    19 ar  
    35    18    23 ar  
    36    19    20 ar  
    37    19    41 1   
    38    20    21 ar  
    39    20    42 1   
    40    21    22 ar  
    41    21    43 1   
    42    22    23 ar  
    43    22    44 1   
    44    23    45 1   
    45    24    25 1   
    46    24    26 1   
    47    24    46 1   
    48    25    47 1   
    49    26    27 1   
    50    26    28 1   
    51    26    48 1   
    52    28    29 1   
    53    28    49 1   
    54    28    50 1   
    55    29    51 1   
@<TRIPOS>SUBSTRUCTURE
     1 DU3         1 TEMP              0 ****  ****    0 ROOT
