@<TRIPOS>MOLECULE
DU3
   52    55     1     0     0
SMALL
abcg2


@<TRIPOS>ATOM
      1 N1           3.0270    -0.2210    -0.2790 n          1 DU3      -0.339000
      2 C2           4.3630    -0.0510    -0.5700 c          1 DU3       0.613000
      3 O2           5.0570    -0.9520    -0.9970 o          1 DU3      -0.568000
      4 N3           4.8510     1.2070    -0.3400 ns         1 DU3      -0.468500
      5 C4           4.1660     2.3100     0.1470 c          1 DU3       0.589200
      6 O4           4.7390     3.3720     0.3090 o          1 DU3      -0.529000
      7 C5           2.7760     2.0430     0.4130 cc         1 DU3      -0.394200
      8 C6           2.2780     0.8140     0.1890 cd         1 DU3       0.010600
      9 C1           2.4670    -1.5790    -0.5160 c5         1 DU3       0.348700
     10 C17         -2.7470    -0.3800     0.6450 c3         1 DU3       0.276100
     11 C18         -2.2010     1.0320     0.5320 ca         1 DU3      -0.090800
     12 C19         -2.5990     2.0080     1.4390 ca         1 DU3      -0.096500
     13 C7           2.8510    -2.5600     0.5840 c5         1 DU3      -0.161400
     14 C20         -2.1370     3.3130     1.3290 ca         1 DU3      -0.115000
     15 C21         -1.2600     3.6560     0.3090 ca         1 DU3      -0.106000
     16 C22         -0.8530     2.6860    -0.5990 ca         1 DU3      -0.115000
     17 C23         -1.3220     1.3830    -0.4890 ca         1 DU3      -0.096500
     18 C24         -3.9850    -0.5070    -0.2200 ca         1 DU3      -0.090800
     19 C25         -3.8890    -0.7690    -1.5850 ca         1 DU3      -0.096500
     20 C26         -5.0310    -0.8400    -2.3710 ca         1 DU3      -0.115000
     21 C27         -6.2850    -0.6470    -1.8050 ca         1 DU3      -0.106000
     22 C28         -6.3890    -0.3890    -0.4450 ca         1 DU3      -0.115000
     23 C29         -5.2450    -0.3230     0.3400 ca         1 DU3      -0.096500
     24 C3           1.6710    -2.4550     1.5420 c5         1 DU3       0.135300
     25 O3           1.4210    -3.5950     2.3160 oh         1 DU3      -0.705000
     26 C8           0.5120    -2.2300     0.5770 c5         1 DU3       0.161300
     27 O1           1.0770    -1.5040    -0.5190 os         1 DU3      -0.439000
     28 C9          -0.6500    -1.4720     1.1790 c3         1 DU3       0.160800
     29 N5          -1.7490    -1.3490     0.2430 n7         1 DU3      -0.863400
     30 H5           2.1390     2.8330     0.7810 ha         1 DU3       0.225000
     31 H6           1.2350     0.6040     0.3650 h4         1 DU3       0.225000
     32 H1           2.8220    -1.8880    -1.4990 h2         1 DU3       0.108700
     33 H17         -3.0650    -0.5230     1.6910 h1         1 DU3       0.029700
     34 H19         -3.2740     1.7450     2.2470 ha         1 DU3       0.119500
     35 H2           2.8900    -3.5680     0.1640 hc         1 DU3       0.083700
     36 H2'A         3.8160    -2.3450     1.0410 hc         1 DU3       0.083700
     37 H20         -2.4550     4.0590     2.0460 ha         1 DU3       0.114000
     38 H21         -0.8920     4.6700     0.2240 ha         1 DU3       0.114000
     39 H22         -0.1640     2.9410    -1.3940 ha         1 DU3       0.114000
     40 H23         -0.9840     0.6250    -1.1840 ha         1 DU3       0.119500
     41 H25         -2.9180    -0.9260    -2.0370 ha         1 DU3       0.119500
     42 H26         -4.9410    -1.0440    -3.4300 ha         1 DU3       0.114000
     43 H27         -7.1740    -0.7040    -2.4190 ha         1 DU3       0.114000
     44 H28         -7.3610    -0.2440     0.0090 ha         1 DU3       0.114000
     45 H29         -5.3370    -0.1320     1.4030 ha         1 DU3       0.119500
     46 H3           1.7890    -1.5670     2.1810 h1         1 DU3       0.044700
     47 HO3          2.0740    -3.6380     3.0210 ho         1 DU3       0.516000
     48 H4           0.1670    -3.2060     0.2090 h1         1 DU3       0.075700
     49 H7          -0.9370    -1.9780     2.1130 h1         1 DU3       0.045700
     50 H5'A        -0.3130    -0.4730     1.4690 h1         1 DU3       0.045700
     51 HN5         -2.1910    -2.2540     0.1260 hn         1 DU3       0.424000
     52 HN3          5.8350     1.3330    -0.5480 hn         1 DU3       0.341500
@<TRIPOS>BOND
     1     1     2 1   
     2     1     8 1   
     3     1     9 1   
     4     2     3 2   
     5     2     4 1   
     6     4     5 1   
     7     4    52 1   
     8     5     6 2   
     9     5     7 1   
    10     7     8 2   
    11     7    30 1   
    12     8    31 1   
    13     9    13 1   
    14     9    27 1   
    15     9    32 1   
    16    10    11 1   
    17    10    18 1   
    18    10    29 1   
    19    10    33 1   
    20    11    12 ar  
    21    11    17 ar  
    22    12    14 ar  
    23    12    34 1   
    24    13    24 1   
    25    13    35 1   
    26    13    36 1   
    27    14    15 ar  
    28    14    37 1   
    29    15    16 ar  
    30    15    38 1   
    31    16    17 ar  
    32    16    39 1   
    33    17    40 1   
    34    18    19 ar  
    35    18    23 ar  
    36    19    20 ar  
    37    19    41 1   
    38    20    21 ar  
    39    20    42 1   
    40    21    22 ar  
    41    21    43 1   
    42    22    23 ar  
    43    22    44 1   
    44    23    45 1   
    45    24    25 1   
    46    24    26 1   
    47    24    46 1   
    48    25    47 1   
    49    26    27 1   
    50    26    28 1   
    51    26    48 1   
    52    28    29 1   
    53    28    49 1   
    54    28    50 1   
    55    29    51 1   
@<TRIPOS>SUBSTRUCTURE
     1 DU3         1 TEMP              0 ****  ****    0 ROOT
