@<TRIPOS>MOLECULE
DU4
   55    58     1     0     0
SMALL
No Charge or Current Charge


@<TRIPOS>ATOM
      1 N1           3.4860    -0.4430    -0.4190 n          1 DU4      -0.336000
      2 C2           4.6500    -0.5740    -1.2000 c          1 DU4       0.614000
      3 O2           4.9540    -1.6030    -1.7820 o          1 DU4      -0.567000
      4 N3           5.4500     0.5230    -1.2750 ns         1 DU4      -0.468500
      5 C4           5.2680     1.7340    -0.6910 c          1 DU4       0.589200
      6 O4           6.0600     2.6490    -0.8310 o          1 DU4      -0.529000
      7 C5           4.0470     1.8210     0.1030 cc         1 DU4      -0.394200
      8 C6           3.1840     0.7570     0.2290 cd         1 DU4       0.011600
      9 C1           2.5820    -1.6170    -0.3120 c5         1 DU4       0.346700
     10 C17         -2.9510    -0.3380     0.4910 c3         1 DU4       0.277100
     11 C18         -2.4950     1.0500     0.9640 ca         1 DU4      -0.086800
     12 C19         -3.1000     1.6410     2.0930 ca         1 DU4      -0.097250
     13 C7           2.9010    -2.3220     1.0470 c5         1 DU4      -0.162400
     14 C20         -2.6940     2.9110     2.5370 ca         1 DU4      -0.115250
     15 C21         -1.6780     3.6040     1.8560 ca         1 DU4      -0.107000
     16 C22         -1.0700     3.0260     0.7300 ca         1 DU4      -0.115250
     17 C23         -1.4780     1.7570     0.2840 ca         1 DU4      -0.097250
     18 C24         -4.0120    -0.1640    -0.6040 ca         1 DU4      -0.086800
     19 C25         -5.3730    -0.3860    -0.3090 ca         1 DU4      -0.097250
     20 C26         -6.3540    -0.2220    -1.3030 ca         1 DU4      -0.115250
     21 C27         -5.9830     0.1660    -2.6010 ca         1 DU4      -0.107000
     22 C28         -4.6300     0.3910    -2.9040 ca         1 DU4      -0.115250
     23 C29         -3.6490     0.2290    -1.9100 ca         1 DU4      -0.097250
     24 C3           1.6290    -2.0460     1.8900 c5         1 DU4       0.133300
     25 O3           1.4020    -3.0700     2.8610 oh         1 DU4      -0.704000
     26 C8           0.5610    -2.0130     0.7610 c5         1 DU4       0.163300
     27 O1           1.2060    -1.1930    -0.2340 os         1 DU4      -0.441000
     28 C41         -2.2790    -2.5390    -0.4490 c3         1 DU4       0.144100
     29 C9          -0.8050    -1.4000     1.1860 c3         1 DU4       0.162800
     30 N5          -1.8220    -1.2350     0.0980 n3         1 DU4      -0.703600
     31 HN3          6.2820     0.4220    -1.8330 hn         1 DU4       0.341500
     32 H5           3.8640     2.7750     0.5840 ha         1 DU4       0.224000
     33 H6           2.2580     0.7660     0.8010 h4         1 DU4       0.223000
     34 H1           2.7410    -2.2800    -1.1730 h2         1 DU4       0.108700
     35 H17         -3.4520    -0.8130     1.3460 h1         1 DU4       0.030700
     36 H19         -3.8880     1.1140     2.6270 ha         1 DU4       0.119750
     37 H2           3.0460    -3.3960     0.8800 hc         1 DU4       0.082700
     38 H2'A         3.8110    -1.9510     1.5310 hc         1 DU4       0.082700
     39 H20         -3.1660     3.3590     3.4090 ha         1 DU4       0.113750
     40 H21         -1.3640     4.5870     2.2010 ha         1 DU4       0.114000
     41 H22         -0.2830     3.5610     0.2020 ha         1 DU4       0.113750
     42 H23         -0.9960     1.3150    -0.5850 ha         1 DU4       0.119750
     43 H25         -5.6730    -0.6850     0.6930 ha         1 DU4       0.119750
     44 H26         -7.4010    -0.3960    -1.0660 ha         1 DU4       0.113750
     45 H27         -6.7420     0.2930    -3.3700 ha         1 DU4       0.114000
     46 H28         -4.3410     0.6910    -3.9090 ha         1 DU4       0.113750
     47 H29         -2.6040     0.4000    -2.1560 ha         1 DU4       0.119750
     48 H3           1.6920    -1.0620     2.3760 h1         1 DU4       0.043700
     49 HO3          2.1280    -3.0080     3.5260 ho         1 DU4       0.515000
     50 H4           0.4020    -3.0200     0.3510 h1         1 DU4       0.076700
     51 H41         -2.9530    -2.4040    -1.3040 h1         1 DU4       0.037367
     52 H41A        -1.4330    -3.1400    -0.8050 h1         1 DU4       0.037367
     53 H41B        -2.8130    -3.1180     0.3180 h1         1 DU4       0.037367
     54 H7          -1.2220    -2.0240     1.9880 h1         1 DU4       0.048700
     55 H5'A        -0.5710    -0.4310     1.6430 h1         1 DU4       0.048700
@<TRIPOS>BOND
     1     1     2 1   
     2     1     8 1   
     3     1     9 1   
     4     2     3 2   
     5     2     4 1   
     6     4     5 1   
     7     4    31 1   
     8     5     6 2   
     9     5     7 1   
    10     7     8 2   
    11     7    32 1   
    12     8    33 1   
    13     9    13 1   
    14     9    27 1   
    15     9    34 1   
    16    10    11 1   
    17    10    18 1   
    18    10    30 1   
    19    10    35 1   
    20    11    12 ar  
    21    11    17 ar  
    22    12    14 ar  
    23    12    36 1   
    24    13    24 1   
    25    13    37 1   
    26    13    38 1   
    27    14    15 ar  
    28    14    39 1   
    29    15    16 ar  
    30    15    40 1   
    31    16    17 ar  
    32    16    41 1   
    33    17    42 1   
    34    18    19 ar  
    35    18    23 ar  
    36    19    20 ar  
    37    19    43 1   
    38    20    21 ar  
    39    20    44 1   
    40    21    22 ar  
    41    21    45 1   
    42    22    23 ar  
    43    22    46 1   
    44    23    47 1   
    45    24    25 1   
    46    24    26 1   
    47    24    48 1   
    48    25    49 1   
    49    26    27 1   
    50    26    29 1   
    51    26    50 1   
    52    28    30 1   
    53    28    51 1   
    54    28    52 1   
    55    28    53 1   
    56    29    30 1   
    57    29    54 1   
    58    29    55 1   
@<TRIPOS>SUBSTRUCTURE
     1 DU4         1 TEMP              0 ****  ****    0 ROOT
