@<TRIPOS>MOLECULE
DU4
   55    58     1     0     0
SMALL
abcg2


@<TRIPOS>ATOM
      1 N1           3.1060    -0.1660    -0.1620 n          1 DU4      -0.336000
      2 C2           4.4360     0.0170    -0.4740 c          1 DU4       0.614000
      3 O2           5.1060    -0.8440    -1.0080 o          1 DU4      -0.567000
      4 N3           4.9460     1.2410    -0.1350 ns         1 DU4      -0.468500
      5 C4           4.2930     2.2910     0.4950 c          1 DU4       0.589200
      6 O4           4.8830     3.3280     0.7390 o          1 DU4      -0.529000
      7 C5           2.9140     2.0040     0.7950 cc         1 DU4      -0.394200
      8 C6           2.3920     0.8120     0.4570 cd         1 DU4       0.011600
      9 C1           2.5190    -1.4840    -0.5140 c5         1 DU4       0.346700
     10 C17         -2.7000    -0.3400     0.5390 c3         1 DU4       0.277100
     11 C18         -2.0120     1.0090     0.6340 ca         1 DU4      -0.086800
     12 C19         -2.3420     1.8780     1.6690 ca         1 DU4      -0.097250
     13 C7           2.8600    -2.5600     0.5120 c5         1 DU4      -0.162400
     14 C20         -1.7750     3.1440     1.7430 ca         1 DU4      -0.115250
     15 C21         -0.8630     3.5550     0.7820 ca         1 DU4      -0.107000
     16 C22         -0.5250     2.6910    -0.2530 ca         1 DU4      -0.115250
     17 C23         -1.0940     1.4280    -0.3270 ca         1 DU4      -0.097250
     18 C24         -3.8590    -0.1920    -0.4300 ca         1 DU4      -0.086800
     19 C25         -5.1490    -0.0120     0.0530 ca         1 DU4      -0.097250
     20 C26         -6.2140     0.1840    -0.8190 ca         1 DU4      -0.115250
     21 C27         -5.9970     0.1960    -2.1890 ca         1 DU4      -0.107000
     22 C28         -4.7090     0.0120    -2.6800 ca         1 DU4      -0.115250
     23 C29         -3.6490    -0.1780    -1.8080 ca         1 DU4      -0.097250
     24 C3           1.6480    -2.5230     1.4370 c5         1 DU4       0.133300
     25 O3           1.3690    -3.7170     2.1120 oh         1 DU4      -0.704000
     26 C8           0.5300    -2.2210     0.4460 c5         1 DU4       0.163300
     27 O1           1.1290    -1.3710    -0.5330 os         1 DU4      -0.441000
     28 C41         -2.4830    -2.6660    -0.0190 c3         1 DU4       0.144100
     29 C9          -0.6780    -1.5490     1.0650 c3         1 DU4       0.162800
     30 N5          -1.7870    -1.4000     0.1330 n3         1 DU4      -0.703600
     31 HN3          5.9220     1.3820    -0.3660 hn         1 DU4       0.341500
     32 H5           2.3050     2.7510     1.2810 ha         1 DU4       0.224000
     33 H6           1.3570     0.5870     0.6580 h4         1 DU4       0.223000
     34 H1           2.8880    -1.7240    -1.5110 h2         1 DU4       0.108700
     35 H17         -3.1280    -0.5640     1.5320 h1         1 DU4       0.030700
     36 H19         -3.0510     1.5640     2.4270 ha         1 DU4       0.119750
     37 H2           2.9040    -3.5310     0.0130 hc         1 DU4       0.082700
     38 H2'A         3.8110    -2.3920     1.0140 hc         1 DU4       0.082700
     39 H20         -2.0440     3.8060     2.5560 ha         1 DU4       0.113750
     40 H21         -0.4170     4.5400     0.8380 ha         1 DU4       0.114000
     41 H22          0.1920     2.9990    -1.0040 ha         1 DU4       0.113750
     42 H23         -0.8060     0.7570    -1.1260 ha         1 DU4       0.119750
     43 H25         -5.3270    -0.0250     1.1220 ha         1 DU4       0.119750
     44 H26         -7.2130     0.3220    -0.4260 ha         1 DU4       0.113750
     45 H27         -6.8240     0.3450    -2.8720 ha         1 DU4       0.114000
     46 H28         -4.5320     0.0140    -3.7480 ha         1 DU4       0.113750
     47 H29         -2.6510    -0.3330    -2.2000 ha         1 DU4       0.119750
     48 H3           1.7470    -1.6870     2.1460 h1         1 DU4       0.043700
     49 HO3          1.9980    -3.8160     2.8340 ho         1 DU4       0.515000
     50 H4           0.2430    -3.1640    -0.0370 h1         1 DU4       0.076700
     51 H41         -3.2270    -2.6140    -0.8110 h1         1 DU4       0.037367
     52 H41A        -1.7800    -3.4510    -0.2940 h1         1 DU4       0.037367
     53 H41B        -2.9890    -2.9850     0.9050 h1         1 DU4       0.037367
     54 H7          -0.9760    -2.1290     1.9540 h1         1 DU4       0.048700
     55 H5'A        -0.3690    -0.5700     1.4360 h1         1 DU4       0.048700
@<TRIPOS>BOND
     1     1     2 1   
     2     1     8 1   
     3     1     9 1   
     4     2     3 2   
     5     2     4 1   
     6     4     5 1   
     7     4    31 1   
     8     5     6 2   
     9     5     7 1   
    10     7     8 2   
    11     7    32 1   
    12     8    33 1   
    13     9    13 1   
    14     9    27 1   
    15     9    34 1   
    16    10    11 1   
    17    10    18 1   
    18    10    30 1   
    19    10    35 1   
    20    11    12 ar  
    21    11    17 ar  
    22    12    14 ar  
    23    12    36 1   
    24    13    24 1   
    25    13    37 1   
    26    13    38 1   
    27    14    15 ar  
    28    14    39 1   
    29    15    16 ar  
    30    15    40 1   
    31    16    17 ar  
    32    16    41 1   
    33    17    42 1   
    34    18    19 ar  
    35    18    23 ar  
    36    19    20 ar  
    37    19    43 1   
    38    20    21 ar  
    39    20    44 1   
    40    21    22 ar  
    41    21    45 1   
    42    22    23 ar  
    43    22    46 1   
    44    23    47 1   
    45    24    25 1   
    46    24    26 1   
    47    24    48 1   
    48    25    49 1   
    49    26    27 1   
    50    26    29 1   
    51    26    50 1   
    52    28    30 1   
    53    28    51 1   
    54    28    52 1   
    55    28    53 1   
    56    29    30 1   
    57    29    54 1   
    58    29    55 1   
@<TRIPOS>SUBSTRUCTURE
     1 DU4         1 TEMP              0 ****  ****    0 ROOT
