@<TRIPOS>MOLECULE
DU5
   54    57     1     0     0
SMALL
bcc


@<TRIPOS>ATOM
      1 CAJ          7.9250    -0.1860    -0.0540 ca         1 DU5      -0.131000
      2 CAE          7.8230    -1.5120    -0.3770 ca         1 DU5      -0.105000
      3 CAF          6.5630    -2.0880    -0.6300 ca         1 DU5      -0.144000
      4 CAK          5.4240    -1.3350    -0.5150 ca         1 DU5      -0.089000
      5 CAZ          5.4980     0.0220    -0.1360 ca         1 DU5      -0.163300
      6 CAY          6.7670     0.6160     0.0510 ca         1 DU5       0.001000
      7 CAL          6.8270     2.0120     0.2810 ca         1 DU5      -0.260300
      8 CAG          5.6630     2.7200     0.2850 ca         1 DU5       0.423200
      9 NAT          4.4400     2.1570     0.1740 nb         1 DU5      -0.737000
     10 CAX          4.3420     0.8630     0.0130 ca         1 DU5       0.661200
     11 NBB          3.0790     0.2940    -0.0580 nh         1 DU5      -0.755300
     12 CAS          1.9690     1.1890    -0.3340 c6         1 DU5       0.193300
     13 CAQ          0.7450     0.3780    -0.7210 c6         1 DU5       0.160300
     14 CAR          2.7220    -0.6440     1.0050 c6         1 DU5       0.193300
     15 CAP          1.4960    -1.4390     0.6090 c6         1 DU5       0.160300
     16 NBA          0.3810    -0.5570     0.3270 n3         1 DU5      -0.721600
     17 CAO         -0.8240    -1.3060     0.0240 c3         1 DU5       0.173800
     18 CAM         -2.0890    -0.4620     0.1070 c3         1 DU5      -0.096400
     19 CAN         -3.3280    -1.3140    -0.1130 c3         1 DU5       0.102000
     20 NAU         -4.5200    -0.4950    -0.0480 ns         1 DU5      -0.570900
     21 CAV         -5.7560    -1.0160    -0.0430 c          1 DU5       0.677700
     22 OAA         -5.9670    -2.2210    -0.0890 o          1 DU5      -0.602100
     23 CAW         -6.8830    -0.0340     0.0210 ca         1 DU5      -0.150600
     24 CAH         -6.7600     1.2050     0.6470 ca         1 DU5      -0.091000
     25 CAC         -7.8430     2.0710     0.7040 ca         1 DU5      -0.138000
     26 CAB         -9.0550     1.7110     0.1310 ca         1 DU5      -0.108000
     27 CAD         -9.1850     0.4750    -0.4900 ca         1 DU5      -0.138000
     28 CAI         -8.1080    -0.3980    -0.5350 ca         1 DU5      -0.091000
     29 H1           8.8950     0.2670     0.1100 ha         1 DU5       0.135000
     30 H2           8.7150    -2.1190    -0.4630 ha         1 DU5       0.132000
     31 H3           6.4980    -3.1260    -0.9280 ha         1 DU5       0.133000
     32 H4           4.4640    -1.7780    -0.7430 ha         1 DU5       0.144000
     33 H5           7.7790     2.5080     0.4190 ha         1 DU5       0.142000
     34 H6           5.6750     3.7970     0.4060 h4         1 DU5       0.017100
     35 H7           1.7330     1.8220     0.5320 h1         1 DU5       0.053450
     36 H8           2.2310     1.8510    -1.1580 h1         1 DU5       0.053450
     37 H9          -0.0750     1.0770    -0.8960 h1         1 DU5       0.039200
     38 H10          0.9400    -0.1390    -1.6770 h1         1 DU5       0.039200
     39 H11          3.5440    -1.3280     1.2080 h1         1 DU5       0.053450
     40 H12          2.5150    -0.0970     1.9360 h1         1 DU5       0.053450
     41 H13          1.7440    -2.0830    -0.2530 h1         1 DU5       0.039200
     42 H14          1.2290    -2.1000     1.4370 h1         1 DU5       0.039200
     43 H16         -0.7660    -1.7900    -0.9660 h1         1 DU5       0.034200
     44 H17         -0.9010    -2.1140     0.7570 h1         1 DU5       0.034200
     45 H18         -2.1360     0.0180     1.0880 hc         1 DU5       0.051200
     46 H19         -2.0710     0.3370    -0.6410 hc         1 DU5       0.051200
     47 H20         -3.2670    -1.8220    -1.0820 h1         1 DU5       0.051200
     48 H21         -3.3860    -2.0940     0.6490 h1         1 DU5       0.051200
     49 H22         -4.4090     0.4980    -0.1740 hn         1 DU5       0.315500
     50 H23         -5.8310     1.4980     1.1200 ha         1 DU5       0.141000
     51 H24         -7.7400     3.0260     1.2040 ha         1 DU5       0.134500
     52 H25         -9.8980     2.3880     0.1750 ha         1 DU5       0.133000
     53 H26        -10.1280     0.1880    -0.9370 ha         1 DU5       0.134500
     54 H27         -8.2170    -1.3630    -1.0120 ha         1 DU5       0.141000
@<TRIPOS>BOND
     1     1     2 ar  
     2     1     6 ar  
     3     1    29 1   
     4     2     3 ar  
     5     2    30 1   
     6     3     4 ar  
     7     3    31 1   
     8     4     5 ar  
     9     4    32 1   
    10     5     6 ar  
    11     5    10 ar  
    12     6     7 ar  
    13     7     8 ar  
    14     7    33 1   
    15     8     9 ar  
    16     8    34 1   
    17     9    10 ar  
    18    10    11 1   
    19    11    12 1   
    20    11    14 1   
    21    12    13 1   
    22    12    35 1   
    23    12    36 1   
    24    13    16 1   
    25    13    37 1   
    26    13    38 1   
    27    14    15 1   
    28    14    39 1   
    29    14    40 1   
    30    15    16 1   
    31    15    41 1   
    32    15    42 1   
    33    16    17 1   
    34    17    18 1   
    35    17    43 1   
    36    17    44 1   
    37    18    19 1   
    38    18    45 1   
    39    18    46 1   
    40    19    20 1   
    41    19    47 1   
    42    19    48 1   
    43    20    21 1   
    44    20    49 1   
    45    21    22 2   
    46    21    23 1   
    47    23    24 ar  
    48    23    28 ar  
    49    24    25 ar  
    50    24    50 1   
    51    25    26 ar  
    52    25    51 1   
    53    26    27 ar  
    54    26    52 1   
    55    27    28 ar  
    56    27    53 1   
    57    28    54 1   
@<TRIPOS>SUBSTRUCTURE
     1 DU5         1 TEMP              0 ****  ****    0 ROOT
