@<TRIPOS>MOLECULE
DU5
   54    57     1     0     0
SMALL
No Charge or Current Charge


@<TRIPOS>ATOM
      1 CAJ          8.0180    -0.0600    -0.6110 ca         1 DU5      -0.113000
      2 CAE          7.8690    -1.3480    -1.1510 ca         1 DU5      -0.087000
      3 CAF          6.5930    -1.9310    -1.2330 ca         1 DU5      -0.126000
      4 CAK          5.4640    -1.2310    -0.7700 ca         1 DU5      -0.071000
      5 CAZ          5.6070     0.0610    -0.2140 ca         1 DU5      -0.098000
      6 CAY          6.8910     0.6420    -0.1480 ca         1 DU5       0.001000
      7 CAL          7.0120     1.9330     0.3840 ca         1 DU5      -0.177000
      8 CAG          5.8610     2.6020     0.8260 ca         1 DU5       0.357900
      9 NAT          4.6260     2.0580     0.7740 nb         1 DU5      -0.737000
     10 CAX          4.5050     0.8140     0.2700 ca         1 DU5       0.595900
     11 NBB          3.1910     0.3150     0.2810 nh         1 DU5      -0.755300
     12 CAS          2.0350     1.2100    -0.0370 c6         1 DU5       0.193300
     13 CAQ          0.7450     0.4050    -0.4010 c6         1 DU5       0.160300
     14 CAR          2.8340    -0.7210     1.2960 c6         1 DU5       0.193300
     15 CAP          1.5380    -1.5030     0.9080 c6         1 DU5       0.160300
     16 NBA          0.3710    -0.6040     0.6430 n3         1 DU5      -0.721600
     17 CAO         -0.8600    -1.3690     0.3300 c3         1 DU5       0.173800
     18 CAM         -2.1460    -0.5180     0.2580 c3         1 DU5      -0.096400
     19 CAN         -3.4110    -1.3790     0.0950 c3         1 DU5       0.102000
     20 NAU         -4.6210    -0.5580     0.0300 ns         1 DU5      -0.503900
     21 CAV         -5.8920    -1.0580    -0.1490 c          1 DU5       0.610700
     22 OAA         -6.0840    -2.2610    -0.2680 o          1 DU5      -0.602100
     23 CAW         -7.0240    -0.0500    -0.1900 ca         1 DU5      -0.150600
     24 CAH         -6.8010     1.3440    -0.0540 ca         1 DU5      -0.073000
     25 CAC         -7.8770     2.2480    -0.0980 ca         1 DU5      -0.120000
     26 CAB         -9.1880     1.7810    -0.2770 ca         1 DU5      -0.090000
     27 CAD         -9.4240     0.4040    -0.4140 ca         1 DU5      -0.120000
     28 CAI         -8.3520    -0.5040    -0.3710 ca         1 DU5      -0.073000
     29 H1           9.0070     0.3910    -0.5550 ha         1 DU5       0.117000
     30 H2           8.7400    -1.8920    -1.5100 ha         1 DU5       0.114000
     31 H3           6.4780    -2.9250    -1.6580 ha         1 DU5       0.115000
     32 H4           4.4850    -1.6960    -0.8540 ha         1 DU5       0.126000
     33 H5           7.9790     2.4230     0.4540 ha         1 DU5       0.124000
     34 H6           5.9300     3.6070     1.2390 h4         1 DU5       0.017100
     35 H7           1.8120     1.8550     0.8260 h1         1 DU5       0.053450
     36 H8           2.2850     1.8670    -0.8820 h1         1 DU5       0.053450
     37 H9          -0.0670     1.1300    -0.5510 h1         1 DU5       0.039200
     38 H10          0.9100    -0.0960    -1.3660 h1         1 DU5       0.039200
     39 H11          3.6540    -1.4420     1.4190 h1         1 DU5       0.053450
     40 H12          2.6760    -0.2420     2.2730 h1         1 DU5       0.053450
     41 H13          1.7530    -2.1110     0.0170 h1         1 DU5       0.039200
     42 H14          1.3000    -2.2030     1.7220 h1         1 DU5       0.039200
     43 H16         -0.7380    -1.9040    -0.6230 h1         1 DU5       0.034200
     44 H17         -1.0120    -2.1320     1.1060 h1         1 DU5       0.034200
     45 H18         -2.2320     0.0790     1.1740 hc         1 DU5       0.051200
     46 H19         -2.0850     0.1790    -0.5850 hc         1 DU5       0.051200
     47 H20         -3.3360    -1.9720    -0.8270 h1         1 DU5       0.051200
     48 H21         -3.4990    -2.0710     0.9440 h1         1 DU5       0.051200
     49 H22         -4.5300     0.4450     0.1230 hn         1 DU5       0.315500
     50 H23         -5.8010     1.7460     0.0870 ha         1 DU5       0.123000
     51 H24         -7.6930     3.3150     0.0090 ha         1 DU5       0.116500
     52 H25        -10.0180     2.4830    -0.3110 ha         1 DU5       0.115000
     53 H26        -10.4390     0.0390    -0.5540 ha         1 DU5       0.116500
     54 H27         -8.5580    -1.5670    -0.4790 ha         1 DU5       0.123000
@<TRIPOS>BOND
     1     1     2 ar  
     2     1     6 ar  
     3     1    29 1   
     4     2     3 ar  
     5     2    30 1   
     6     3     4 ar  
     7     3    31 1   
     8     4     5 ar  
     9     4    32 1   
    10     5     6 ar  
    11     5    10 ar  
    12     6     7 ar  
    13     7     8 ar  
    14     7    33 1   
    15     8     9 ar  
    16     8    34 1   
    17     9    10 ar  
    18    10    11 1   
    19    11    12 1   
    20    11    14 1   
    21    12    13 1   
    22    12    35 1   
    23    12    36 1   
    24    13    16 1   
    25    13    37 1   
    26    13    38 1   
    27    14    15 1   
    28    14    39 1   
    29    14    40 1   
    30    15    16 1   
    31    15    41 1   
    32    15    42 1   
    33    16    17 1   
    34    17    18 1   
    35    17    43 1   
    36    17    44 1   
    37    18    19 1   
    38    18    45 1   
    39    18    46 1   
    40    19    20 1   
    41    19    47 1   
    42    19    48 1   
    43    20    21 1   
    44    20    49 1   
    45    21    22 2   
    46    21    23 1   
    47    23    24 ar  
    48    23    28 ar  
    49    24    25 ar  
    50    24    50 1   
    51    25    26 ar  
    52    25    51 1   
    53    26    27 ar  
    54    26    52 1   
    55    27    28 ar  
    56    27    53 1   
    57    28    54 1   
@<TRIPOS>SUBSTRUCTURE
     1 DU5         1 TEMP              0 ****  ****    0 ROOT
