@<TRIPOS>MOLECULE
DU6
   41    44     1     0     0
SMALL
abcg2


@<TRIPOS>ATOM
      1 C10         -1.6470    -1.6130     1.4020 c3         1 DU6       0.202300
      2 C13          1.2260     2.4260     1.6800 cx         1 DU6      -0.101400
      3 C20          3.5830    -0.3050     0.7330 ca         1 DU6      -0.172500
      4 C21          4.8830     0.1330     0.5720 ca         1 DU6      -0.038500
      5 C22          5.4230     0.3270    -0.6990 ca         1 DU6      -0.061000
      6 C24          3.3380    -0.3640    -1.6660 ca         1 DU6      -0.172500
      7 C02         -2.9600     0.7830    -0.4740 cc         1 DU6       0.041000
      8 C03         -3.9010     1.3970    -1.2270 cd         1 DU6      -0.237000
      9 C05         -4.6700    -0.7800    -0.4410 cc         1 DU6       0.433900
     10 C07         -4.0090    -2.4090     0.7070 cd         1 DU6       0.275900
     11 C08         -2.9650    -1.5230     0.7280 cc         1 DU6      -0.230300
     12 C09         -1.6810     1.2960    -0.1740 cg         1 DU6      -0.157000
     13 C11         -0.6000     1.7910     0.0360 c1         1 DU6      -0.015100
     14 C12          0.6810     2.3770     0.2760 cx         1 DU6      -0.086600
     15 C14          0.7710     3.6840     1.0330 cx         1 DU6      -0.101400
     16 C16          0.6590    -1.1550     0.7520 c          1 DU6       0.667100
     17 C19          2.7870    -0.5600    -0.3910 ca         1 DU6       0.029000
     18 C23          4.6340     0.0720    -1.8220 ca         1 DU6      -0.038500
     19 N01         -3.4120    -0.4590    -0.0290 na         1 DU6      -0.013500
     20 N06         -5.0710    -1.9440    -0.0180 nd         1 DU6      -0.637000
     21 N15         -0.5640    -1.6370     0.4410 ns         1 DU6      -0.524900
     22 N18          1.4820    -1.0070    -0.3460 ns         1 DU6      -0.160000
     23 N26          7.8520     1.1400    -0.9720 n1         1 DU6      -0.459000
     24 O17          0.9930    -0.8780     1.8920 o          1 DU6      -0.619100
     25 S04         -5.3550     0.4750    -1.4130 ss         1 DU6       0.065600
     26 H1          -1.5000    -0.7670     2.0770 h1         1 DU6       0.071200
     27 H2          -1.6560    -2.5130     2.0220 h1         1 DU6       0.071200
     28 H3           0.6160     1.9940     2.4610 hc         1 DU6       0.082200
     29 H4           2.2870     2.2480     1.7870 hc         1 DU6       0.082200
     30 H5           3.1970    -0.4430     1.7280 ha         1 DU6       0.135500
     31 H6           5.4860     0.3240     1.4500 ha         1 DU6       0.126000
     32 H7           2.7370    -0.5580    -2.5460 ha         1 DU6       0.135500
     33 H8          -3.8050     2.3650    -1.6920 h4         1 DU6       0.171000
     34 H9          -4.0370    -3.3730     1.1940 h4         1 DU6       0.044100
     35 H10          1.4050     2.2340    -0.5180 hc         1 DU6       0.100700
     36 H11         -0.1560     4.1300     1.3670 hc         1 DU6       0.082200
     37 H12          1.5160     4.3890     0.6870 hc         1 DU6       0.082200
     38 H13          5.0340     0.2160    -2.8160 ha         1 DU6       0.126000
     39 H14         -0.7770    -1.9260    -0.5000 hn         1 DU6       0.320500
     40 H15          1.0630    -1.1710    -1.2490 hn         1 DU6       0.149000
     41 C25          6.7640     0.7780    -0.8500 cg         1 DU6       0.330000
@<TRIPOS>BOND
     1     1    11 1   
     2     1    21 1   
     3     1    26 1   
     4     1    27 1   
     5     2    14 1   
     6     2    15 1   
     7     2    28 1   
     8     2    29 1   
     9     3     4 ar  
    10     3    17 ar  
    11     3    30 1   
    12     4     5 ar  
    13     4    31 1   
    14     5    18 ar  
    15     5    41 1   
    16     6    17 ar  
    17     6    18 ar  
    18     6    32 1   
    19     7     8 2   
    20     7    12 1   
    21     7    19 1   
    22     8    25 1   
    23     8    33 1   
    24     9    19 1   
    25     9    20 2   
    26     9    25 1   
    27    10    11 2   
    28    10    20 1   
    29    10    34 1   
    30    11    19 1   
    31    12    13 3   
    32    13    14 1   
    33    14    15 1   
    34    14    35 1   
    35    15    36 1   
    36    15    37 1   
    37    16    21 1   
    38    16    22 1   
    39    16    24 2   
    40    17    22 1   
    41    18    38 1   
    42    21    39 1   
    43    22    40 1   
    44    23    41 3   
@<TRIPOS>SUBSTRUCTURE
     1 DU6         1 TEMP              0 ****  ****    0 ROOT
