@<TRIPOS>MOLECULE
DU6
   41    44     1     0     0
SMALL
No Charge or Current Charge


@<TRIPOS>ATOM
      1 C10         -1.6500    -1.3650     1.4100 c3         1 DU6       0.202300
      2 C13          1.1000     2.3840     1.6370 cx         1 DU6      -0.101400
      3 C20          3.7670    -0.2540     0.7110 ca         1 DU6      -0.172500
      4 C21          5.1180     0.0900     0.5240 ca         1 DU6      -0.038500
      5 C22          5.6730     0.1040    -0.7690 ca         1 DU6      -0.061000
      6 C24          3.5170    -0.5680    -1.6830 ca         1 DU6      -0.172500
      7 C02         -3.2300     0.8200    -0.3440 cc         1 DU6       0.041000
      8 C03         -4.1720     1.3000    -1.2480 cd         1 DU6      -0.237000
      9 C05         -4.8640    -0.8100    -0.3030 cc         1 DU6       0.433900
     10 C07         -3.8120    -2.4850     0.4820 cd         1 DU6       0.275900
     11 C08         -2.9840    -1.3970     0.7180 cc         1 DU6      -0.230300
     12 C09         -1.9860     1.4550    -0.0750 cg         1 DU6      -0.157000
     13 C11         -0.9090     1.9840     0.1130 c1         1 DU6      -0.015100
     14 C12          0.3950     2.5770     0.3130 cx         1 DU6      -0.086600
     15 C14          0.5420     3.7380     1.2700 cx         1 DU6      -0.101400
     16 C16          0.7550    -1.1080     0.8160 c          1 DU6       0.667100
     17 C19          2.9540    -0.5900    -0.3930 ca         1 DU6       0.029000
     18 C23          4.8670    -0.2260    -1.8740 ca         1 DU6      -0.038500
     19 N01         -3.7400    -0.3360     0.2580 na         1 DU6      -0.013500
     20 N06         -4.9620    -2.1240    -0.2220 nd         1 DU6      -0.637000
     21 N15         -0.5470    -1.3440     0.4600 ns         1 DU6      -0.524900
     22 N18          1.5800    -0.9320    -0.2810 ns         1 DU6      -0.160000
     23 N26          8.1720     0.7450    -1.1240 n1         1 DU6      -0.459000
     24 O17          1.1070    -1.0560     1.9850 o          1 DU6      -0.619100
     25 S04         -5.5830     0.2410    -1.4760 ss         1 DU6       0.065600
     26 H1          -1.5910    -0.4760     2.0540 h1         1 DU6       0.071200
     27 H2          -1.5480    -2.2510     2.0510 h1         1 DU6       0.071200
     28 H3           0.5910     1.8220     2.4160 hc         1 DU6       0.082200
     29 H4           2.1800     2.2590     1.6200 hc         1 DU6       0.082200
     30 H5           3.3730    -0.2460     1.7220 ha         1 DU6       0.135500
     31 H6           5.7320     0.3470     1.3860 ha         1 DU6       0.126000
     32 H7           2.9050    -0.8180    -2.5470 ha         1 DU6       0.135500
     33 H8          -4.0900     2.1980    -1.8500 h4         1 DU6       0.171000
     34 H9          -3.6130    -3.5210     0.7310 h4         1 DU6       0.044100
     35 H10          1.0170     2.5870    -0.5790 hc         1 DU6       0.100700
     36 H11         -0.3420     4.0830     1.8040 hc         1 DU6       0.082200
     37 H12          1.2470     4.5230     1.0080 hc         1 DU6       0.082200
     38 H13          5.2830    -0.2170    -2.8800 ha         1 DU6       0.126000
     39 H14         -0.7670    -1.3630    -0.5270 hn         1 DU6       0.320500
     40 H15          1.1150    -1.0350    -1.1720 hn         1 DU6       0.149000
     41 C25          7.0530     0.4560    -0.9600 cg         1 DU6       0.330000
@<TRIPOS>BOND
     1     1    11 1   
     2     1    21 1   
     3     1    26 1   
     4     1    27 1   
     5     2    14 1   
     6     2    15 1   
     7     2    28 1   
     8     2    29 1   
     9     3     4 ar  
    10     3    17 ar  
    11     3    30 1   
    12     4     5 ar  
    13     4    31 1   
    14     5    18 ar  
    15     5    41 1   
    16     6    17 ar  
    17     6    18 ar  
    18     6    32 1   
    19     7     8 2   
    20     7    12 1   
    21     7    19 1   
    22     8    25 1   
    23     8    33 1   
    24     9    19 1   
    25     9    20 2   
    26     9    25 1   
    27    10    11 2   
    28    10    20 1   
    29    10    34 1   
    30    11    19 1   
    31    12    13 3   
    32    13    14 1   
    33    14    15 1   
    34    14    35 1   
    35    15    36 1   
    36    15    37 1   
    37    16    21 1   
    38    16    22 1   
    39    16    24 2   
    40    17    22 1   
    41    18    38 1   
    42    21    39 1   
    43    22    40 1   
    44    23    41 3   
@<TRIPOS>SUBSTRUCTURE
     1 DU6         1 TEMP              0 ****  ****    0 ROOT
