@<TRIPOS>MOLECULE
DU7
   15    15     1     0     0
SMALL
abcg2


@<TRIPOS>ATOM
      1 C4          -1.0380    -1.1510     0.0080 ca         1 DU7       0.410900
      2 C3           0.8730     0.0170    -0.0670 ca         1 DU7       0.262000
      3 C2           0.1960     1.2230    -0.0640 ca         1 DU7      -0.282000
      4 C1          -1.1920     1.1180    -0.0170 ca         1 DU7       0.183300
      5 CL           2.6050     0.0300    -0.1200 cl         1 DU7      -0.168000
      6 N            0.3050    -1.1570    -0.0320 nb         1 DU7      -0.251000
      7 N1          -1.6490    -2.3410     0.0350 nv         1 DU7      -1.074900
      8 N2          -1.8040    -0.0580     0.0190 nb         1 DU7      -0.266000
      9 C           -2.0590     2.3350    -0.0070 c3         1 DU7      -0.152400
     10 H3           0.7040     2.1740    -0.0950 ha         1 DU7       0.147000
     11 H5          -1.1160    -3.1920     0.0510 hn         1 DU7       0.509000
     12 H4          -2.6510    -2.3940     0.0840 hn         1 DU7       0.509000
     13 H2          -2.6890     2.3400     0.8830 hc         1 DU7       0.057367
     14 H1          -1.4730     3.2510    -0.0220 hc         1 DU7       0.057367
     15 H           -2.7210     2.3320    -0.8730 hc         1 DU7       0.057367
@<TRIPOS>BOND
     1     1     6 ar  
     2     1     7 1   
     3     1     8 ar  
     4     2     3 ar  
     5     2     5 1   
     6     2     6 ar  
     7     3     4 ar  
     8     3    10 1   
     9     4     8 ar  
    10     4     9 1   
    11     7    11 1   
    12     7    12 1   
    13     9    13 1   
    14     9    14 1   
    15     9    15 1   
@<TRIPOS>SUBSTRUCTURE
     1 DU7         1 TEMP              0 ****  ****    0 ROOT
