@<TRIPOS>MOLECULE
DU7
   15    15     1     0     0
SMALL
No Charge or Current Charge


@<TRIPOS>ATOM
      1 C4          -1.0300    -1.1590    -0.0840 ca         1 DU7       0.410900
      2 C3           0.9210     0.0080    -0.0320 ca         1 DU7       0.262000
      3 C2           0.1950     1.2090    -0.0130 ca         1 DU7      -0.282000
      4 C1          -1.2060     1.1180    -0.0340 ca         1 DU7       0.183300
      5 Cl           2.6780     0.0180    -0.0080 cl         1 DU7      -0.168000
      6 N            0.3100    -1.1900    -0.0680 nb         1 DU7      -0.251000
      7 N1          -1.6560    -2.3600    -0.1180 nv         1 DU7      -1.074900
      8 N2          -1.8250    -0.0790    -0.0680 nb         1 DU7      -0.266000
      9 C           -2.0870     2.3530    -0.0100 c3         1 DU7      -0.152400
     10 H3           0.7020     2.1700     0.0180 ha         1 DU7       0.147000
     11 H5          -1.1140    -3.1920     0.1060 hn         1 DU7       0.509000
     12 H4          -2.6490    -2.3940     0.1030 hn         1 DU7       0.509000
     13 H2          -2.4570     2.5470     1.0030 hc         1 DU7       0.057367
     14 H1          -1.5360     3.2410    -0.3420 hc         1 DU7       0.057367
     15 H           -2.9550     2.2360    -0.6700 hc         1 DU7       0.057367
@<TRIPOS>BOND
     1     1     6 ar  
     2     1     7 1   
     3     1     8 ar  
     4     2     3 ar  
     5     2     5 1   
     6     2     6 ar  
     7     3     4 ar  
     8     3    10 1   
     9     4     8 ar  
    10     4     9 1   
    11     7    11 1   
    12     7    12 1   
    13     9    13 1   
    14     9    14 1   
    15     9    15 1   
@<TRIPOS>SUBSTRUCTURE
     1 DU7         1 TEMP              0 ****  ****    0 ROOT
