@<TRIPOS>MOLECULE
DU8
   42    44     1     0     0
SMALL
No Charge or Current Charge


@<TRIPOS>ATOM
      1 C1           1.7720     4.4070     1.0960 ca         1 DU8       0.165900
      2 O1          -1.9230     0.7020     0.5970 os         1 DU8      -0.420000
      3 C2           3.3390     2.7470     0.9420 ca         1 DU8       0.440900
      4 C3           2.3310     1.8660     0.4990 ca         1 DU8      -0.077600
      5 C4           1.0470     2.3560     0.3820 ca         1 DU8       0.129500
      6 C5           1.1600     0.2320    -0.1850 cc         1 DU8       0.457700
      7 C6          -1.6150     0.8060    -1.8060 c5         1 DU8       0.101300
      8 C7          -2.6330    -0.3020    -1.3850 c5         1 DU8       0.086300
      9 O2          -2.3320     1.7690    -2.5890 oh         1 DU8      -0.710000
     10 C10         -3.9160    -0.7250     0.8650 c3         1 DU8       0.159800
     11 C11          2.2050    -2.3480    -0.5760 c3         1 DU8       0.124600
     12 C12          1.9430    -3.8150    -0.9610 c3         1 DU8      -0.219400
     13 C13          3.2660    -4.5780    -0.8980 c          1 DU8       0.727000
     14 C8          -3.1460     0.2790    -0.0340 c5         1 DU8       0.151300
     15 C9          -1.1410     1.3760    -0.4110 c5         1 DU8       0.300300
     16 N1           3.0630     4.0240     1.2460 nb         1 DU8      -0.311000
     17 N2           0.7400     3.6350     0.6760 nb         1 DU8      -0.219000
     18 N3           0.2810     1.3110    -0.0580 na         1 DU8      -0.279300
     19 N4           2.4240     0.5130     0.1520 nd         1 DU8      -0.555100
     20 N5           4.6360     2.3640     1.0970 nv         1 DU8      -1.065900
     21 N6          -4.3580    -0.0900     2.1210 n2         1 DU8      -0.402200
     22 N7          -5.4330     0.5290     2.0810 n1         1 DU8       0.227000
     23 N8          -6.3410     1.2100     2.0120 n1         1 DU8      -0.100000
     24 O3          -3.6650    -0.4510    -2.3850 oh         1 DU8      -0.722000
     25 O4           3.9640    -4.6010    -1.8990 o          1 DU8      -0.725000
     26 O5           3.5910    -5.0760     0.1690 o          1 DU8      -0.725000
     27 S1           0.6300    -1.3830    -0.6390 ss         1 DU8      -0.329200
     28 H1           1.5380     5.4420     1.3390 h5         1 DU8       0.035100
     29 H2          -0.7790     0.3850    -2.3820 h1         1 DU8       0.087700
     30 H3          -2.1130    -1.2560    -1.2140 h1         1 DU8       0.083700
     31 H4          -3.1290     1.2400    -2.8660 ho         1 DU8       0.519000
     32 H5          -4.7730    -1.1160     0.3000 h1         1 DU8       0.079700
     33 H6          -3.2570    -1.5750     1.0810 h1         1 DU8       0.079700
     34 H7           2.6200    -2.2950     0.4390 h1         1 DU8       0.079200
     35 H8           2.9290    -1.9020    -1.2720 h1         1 DU8       0.079200
     36 H9           1.2330    -4.2010    -0.2190 hc         1 DU8       0.030700
     37 H10          1.5520    -3.7950    -1.9850 hc         1 DU8       0.030700
     38 H11         -3.7790     1.1620    -0.2050 h1         1 DU8       0.051700
     39 H12         -1.3930     2.4440    -0.3870 h2         1 DU8       0.105700
     40 H13          4.8190     1.3630     1.0850 hn         1 DU8       0.503000
     41 H14          5.2380     2.9320     1.6870 hn         1 DU8       0.503000
     42 H16         -3.9450    -1.4000    -2.3940 ho         1 DU8       0.519000
@<TRIPOS>BOND
     1     1    16 ar  
     2     1    17 ar  
     3     1    28 1   
     4     2    14 1   
     5     2    15 1   
     6     3     4 ar  
     7     3    16 ar  
     8     3    20 1   
     9     4     5 ar  
    10     4    19 1   
    11     5    17 ar  
    12     5    18 1   
    13     6    18 1   
    14     6    19 2   
    15     6    27 1   
    16     7     8 1   
    17     7     9 1   
    18     7    15 1   
    19     7    29 1   
    20     8    14 1   
    21     8    24 1   
    22     8    30 1   
    23     9    31 1   
    24    10    14 1   
    25    10    21 1   
    26    10    32 1   
    27    10    33 1   
    28    11    12 1   
    29    11    27 1   
    30    11    34 1   
    31    11    35 1   
    32    12    13 1   
    33    12    36 1   
    34    12    37 1   
    35    13    25 1   
    36    13    26 1   
    37    14    38 1   
    38    15    18 1   
    39    15    39 1   
    40    20    40 1   
    41    20    41 1   
    42    21    22 1   
    43    22    23 3   
    44    24    42 1   
@<TRIPOS>SUBSTRUCTURE
     1 DU8         1 TEMP              0 ****  ****    0 ROOT
