@<TRIPOS>MOLECULE
DU8
   42    44     1     0     0
SMALL
bcc


@<TRIPOS>ATOM
      1 C1           1.8100     4.4840     0.7110 ca         1 DU8       0.691900
      2 O1          -1.8590     0.5890     0.5760 os         1 DU8      -0.373600
      3 C2           3.3550     2.7930     0.9240 ca         1 DU8       0.769200
      4 C3           2.3210     1.8890     0.6280 ca         1 DU8      -0.208200
      5 C4           1.0740     2.4410     0.3950 ca         1 DU8       0.457800
      6 C5           1.0410     0.2520     0.2290 cc         1 DU8       0.457700
      7 C6          -1.4480     1.1010    -1.7140 c5         1 DU8       0.078100
      8 C7          -2.4990    -0.0260    -1.5760 c5         1 DU8       0.063100
      9 O2          -1.9750     2.2160    -2.3740 oh         1 DU8      -0.587800
     10 C10         -3.5100    -1.1410     0.4700 c3         1 DU8       0.159800
     11 C11          1.8940    -2.2970    -0.3010 c3         1 DU8       0.076700
     12 C12          1.4880    -3.7370    -0.5550 c3         1 DU8      -0.219400
     13 C13          2.6860    -4.6720    -0.8260 c          1 DU8       0.937600
     14 C8          -2.9930     0.1440    -0.1400 c5         1 DU8       0.128100
     15 C9          -1.1330     1.4670    -0.2420 c5         1 DU8       0.247800
     16 N1           3.0570     4.0970     0.9580 nb         1 DU8      -0.837000
     17 N2           0.7600     3.7310     0.4220 nb         1 DU8      -0.745000
     18 N3           0.2520     1.3770     0.1330 na         1 DU8      -0.250000
     19 N4           2.2790     0.5220     0.5260 nd         1 DU8      -0.555100
     20 N5           4.6120     2.4040     1.1540 nv         1 DU8      -0.955500
     21 N6          -3.9550    -0.9740     1.8550 n2         1 DU8      -0.402200
     22 N7          -5.0610    -0.4890     2.0140 n1         1 DU8       0.227000
     23 N8          -6.0650    -0.0530     2.2700 n1         1 DU8      -0.100000
     24 O3          -3.5670     0.1110    -2.4730 oh         1 DU8      -0.599800
     25 O4           2.3960    -5.8570    -1.0810 o          1 DU8      -0.830300
     26 O5           3.8260    -4.1760    -0.7670 o          1 DU8      -0.830300
     27 S1           0.3720    -1.3380    -0.0030 ss         1 DU8      -0.281300
     28 H1           1.6330     5.5530     0.7570 h5         1 DU8       0.035100
     29 H2          -0.5470     0.7430    -2.2270 h1         1 DU8       0.087700
     30 H3          -2.0040    -0.9960    -1.6850 h1         1 DU8       0.083700
     31 H4          -2.7970     1.9320    -2.7980 ho         1 DU8       0.420000
     32 H5          -4.3120    -1.5320    -0.1620 h1         1 DU8       0.079700
     33 H6          -2.7150    -1.8850     0.4970 h1         1 DU8       0.079700
     34 H7           2.5380    -2.2100     0.5710 h1         1 DU8       0.079200
     35 H8           2.4100    -1.8670    -1.1580 h1         1 DU8       0.079200
     36 H9           0.9340    -4.1300     0.3030 hc         1 DU8       0.030700
     37 H10          0.8020    -3.7960    -1.4050 hc         1 DU8       0.030700
     38 H11         -3.7820     0.9120    -0.1250 h1         1 DU8       0.051700
     39 H12         -1.4280     2.5090    -0.0770 h2         1 DU8       0.105700
     40 H13          4.8440     1.4290     1.2280 hn         1 DU8       0.447800
     41 H14          5.2980     3.0760     1.4500 hn         1 DU8       0.447800
     42 H16         -3.3830    -0.4090    -3.2620 ho         1 DU8       0.420000
@<TRIPOS>BOND
     1     1    16 ar  
     2     1    17 ar  
     3     1    28 1   
     4     2    14 1   
     5     2    15 1   
     6     3     4 ar  
     7     3    16 ar  
     8     3    20 1   
     9     4     5 ar  
    10     4    19 1   
    11     5    17 ar  
    12     5    18 1   
    13     6    18 1   
    14     6    19 2   
    15     6    27 1   
    16     7     8 1   
    17     7     9 1   
    18     7    15 1   
    19     7    29 1   
    20     8    14 1   
    21     8    24 1   
    22     8    30 1   
    23     9    31 1   
    24    10    14 1   
    25    10    21 1   
    26    10    32 1   
    27    10    33 1   
    28    11    12 1   
    29    11    27 1   
    30    11    34 1   
    31    11    35 1   
    32    12    13 1   
    33    12    36 1   
    34    12    37 1   
    35    13    25 1   
    36    13    26 1   
    37    14    38 1   
    38    15    18 1   
    39    15    39 1   
    40    20    40 1   
    41    20    41 1   
    42    21    22 1   
    43    22    23 3   
    44    24    42 1   
@<TRIPOS>SUBSTRUCTURE
     1 DU8         1 TEMP              0 ****  ****    0 ROOT
