@<TRIPOS>MOLECULE
DU9
   72    77     1     0     0
SMALL
abcg2


@<TRIPOS>ATOM
      1 C10         -0.1150    -1.7530     0.1740 c5         1 DU9      -0.049700
      2 C11          1.1180    -0.9050     0.0740 ca         1 DU9      -0.235300
      3 C12          1.3370     0.4150    -0.2190 ca         1 DU9       0.263000
      4 C14          2.6080     0.9720    -0.2570 ca         1 DU9      -0.257000
      5 C15          3.7260     0.1800     0.0330 ca         1 DU9       0.371000
      6 C01         -6.6580     2.2050    -1.1520 c6         1 DU9       0.018800
      7 C02         -5.6600     1.1190    -0.8800 cc         1 DU9      -0.411400
      8 C03         -5.1360     0.3630    -1.9500 c          1 DU9       0.594200
      9 C06         -3.8680    -0.8770    -0.3000 cc         1 DU9       0.755800
     10 C08         -2.2090    -2.5520    -1.0480 c6         1 DU9       0.210300
     11 C09         -0.8590    -1.8550    -1.1750 c6         1 DU9      -0.088900
     12 C17          6.0810    -0.0580    -0.5620 c6         1 DU9       0.165300
     13 C18          7.4370     0.4370    -0.0860 c6         1 DU9       0.165300
     14 C19          8.5660    -0.2830    -0.7900 c3         1 DU9      -0.089100
     15 C21          6.5600     2.5740     0.3090 c6         1 DU9       0.165300
     16 C22          6.8010     4.0400     0.0110 c3         1 DU9      -0.089100
     17 C23          5.1740     2.1350    -0.1470 c6         1 DU9       0.165300
     18 C24          3.5300    -1.1810     0.3470 ca         1 DU9      -0.216000
     19 C25          2.2460    -1.6750     0.3510 ca         1 DU9       0.028000
     20 C28          0.4940    -3.1120     0.5470 c          1 DU9       0.567000
     21 C30         -1.0690    -1.2740     1.2900 c6         1 DU9      -0.088900
     22 C31         -2.4120    -1.9960     1.2830 c6         1 DU9       0.210300
     23 C33         -5.2290     0.8210     0.4120 cd         1 DU9       0.488600
     24 C36         -6.5700     2.6490     1.2990 c6         1 DU9       0.226800
     25 C37         -7.4790     2.4720     0.0990 c6         1 DU9      -0.091400
     26 F13          0.2930     1.2140    -0.4970 f          1 DU9      -0.172000
     27 N05         -4.2280    -0.6370    -1.5820 ns         1 DU9      -0.441400
     28 N07         -3.0240    -1.9030    -0.0350 nh         1 DU9      -0.736600
     29 N16          5.0060     0.7100     0.0500 nh         1 DU9      -0.791400
     30 N26          1.8490    -2.9760     0.6310 n          1 DU9      -0.215400
     31 N32         -4.3420    -0.1640     0.6840 nd         1 DU9      -0.778300
     32 N34         -5.6910     1.5100     1.4820 nh         1 DU9      -0.665400
     33 O04         -5.3940     0.4990    -3.1480 o          1 DU9      -0.584000
     34 O20          7.5670     1.8220    -0.3350 os         1 DU9      -0.452000
     35 O29         -0.1080    -4.1490     0.7380 o          1 DU9      -0.528000
     36 H1           2.7010     2.0120    -0.5350 ha         1 DU9       0.137000
     37 H2          -6.1620     3.1300    -1.4690 hc         1 DU9       0.048200
     38 H3          -7.3140     1.9190    -1.9770 hc         1 DU9       0.048200
     39 H4          -2.7090    -2.5930    -2.0130 h1         1 DU9       0.075450
     40 H5          -2.0820    -3.5910    -0.7470 h1         1 DU9       0.075450
     41 H6          -1.0190    -0.8450    -1.5600 hc         1 DU9       0.064450
     42 H7          -0.2400    -2.3750    -1.9090 hc         1 DU9       0.064450
     43 H8           6.0290     0.0130    -1.6590 h1         1 DU9       0.050950
     44 H9           5.9920    -1.1110    -0.3040 h1         1 DU9       0.050950
     45 H10          7.5040     0.2530     0.9980 h1         1 DU9       0.044700
     46 H11          8.5170    -0.1380    -1.8710 hc         1 DU9       0.047533
     47 H12          9.5350     0.0710    -0.4390 hc         1 DU9       0.047533
     48 H13          8.5120    -1.3540    -0.5920 hc         1 DU9       0.047533
     49 H14          6.6210     2.4090     1.3960 h1         1 DU9       0.044700
     50 H15          6.7310     4.2420    -1.0590 hc         1 DU9       0.047533
     51 H16          6.0600     4.6560     0.5200 hc         1 DU9       0.047533
     52 H17          7.7860     4.3500     0.3570 hc         1 DU9       0.047533
     53 H18          4.4430     2.6760     0.4550 h1         1 DU9       0.050950
     54 H19          5.0190     2.4240    -1.1990 h1         1 DU9       0.050950
     55 H20          4.3630    -1.8170     0.6100 ha         1 DU9       0.130000
     56 H21          2.2080    -4.9630     1.0810 h1         1 DU9       0.051033
     57 H22          3.5030    -4.1700     0.1770 h1         1 DU9       0.051033
     58 H23          3.2820    -3.8220     1.9010 h1         1 DU9       0.051033
     59 H24         -0.5910    -1.3840     2.2660 hc         1 DU9       0.064450
     60 H25         -1.2530    -0.2060     1.1500 hc         1 DU9       0.064450
     61 H26         -2.2960    -3.0530     1.5230 h1         1 DU9       0.075450
     62 H27         -3.0730    -1.5590     2.0250 h1         1 DU9       0.075450
     63 H28         -5.9320     1.2750     3.5420 h1         1 DU9       0.041700
     64 H29         -4.5010     0.4900     2.8630 h1         1 DU9       0.041700
     65 H30         -4.5320     2.2450     3.0740 h1         1 DU9       0.041700
     66 H31         -5.9800     3.5690     1.1980 h1         1 DU9       0.038200
     67 H32         -7.1660     2.7560     2.2080 h1         1 DU9       0.038200
     68 H33         -8.0920     3.3660    -0.0170 hc         1 DU9       0.049200
     69 H34         -8.1610     1.6370     0.2810 hc         1 DU9       0.049200
     70 H35         -3.8570    -1.1850    -2.3430 hn         1 DU9       0.325500
     71 C27          2.7640    -4.0380     0.9660 c3         1 DU9       0.091300
     72 C35         -5.1320     1.3700     2.8060 c3         1 DU9       0.215100
@<TRIPOS>BOND
     1     1     2 1   
     2     1    11 1   
     3     1    20 1   
     4     1    21 1   
     5     2     3 ar  
     6     2    19 ar  
     7     3     4 ar  
     8     3    26 1   
     9     4     5 ar  
    10     4    36 1   
    11     5    18 ar  
    12     5    29 1   
    13     6     7 1   
    14     6    25 1   
    15     6    37 1   
    16     6    38 1   
    17     7     8 1   
    18     7    23 2   
    19     8    27 1   
    20     8    33 2   
    21     9    27 1   
    22     9    28 1   
    23     9    31 2   
    24    10    11 1   
    25    10    28 1   
    26    10    39 1   
    27    10    40 1   
    28    11    41 1   
    29    11    42 1   
    30    12    13 1   
    31    12    29 1   
    32    12    43 1   
    33    12    44 1   
    34    13    14 1   
    35    13    34 1   
    36    13    45 1   
    37    14    46 1   
    38    14    47 1   
    39    14    48 1   
    40    15    16 1   
    41    15    17 1   
    42    15    34 1   
    43    15    49 1   
    44    16    50 1   
    45    16    51 1   
    46    16    52 1   
    47    17    29 1   
    48    17    53 1   
    49    17    54 1   
    50    18    19 ar  
    51    18    55 1   
    52    19    30 1   
    53    20    30 1   
    54    20    35 2   
    55    21    22 1   
    56    21    59 1   
    57    21    60 1   
    58    22    28 1   
    59    22    61 1   
    60    22    62 1   
    61    23    31 1   
    62    23    32 1   
    63    24    25 1   
    64    24    32 1   
    65    24    66 1   
    66    24    67 1   
    67    25    68 1   
    68    25    69 1   
    69    27    70 1   
    70    30    71 1   
    71    32    72 1   
    72    56    71 1   
    73    57    71 1   
    74    58    71 1   
    75    63    72 1   
    76    64    72 1   
    77    65    72 1   
@<TRIPOS>SUBSTRUCTURE
     1 DU9         1 TEMP              0 ****  ****    0 ROOT
