@<TRIPOS>MOLECULE
DU9
   72    77     1     0     0
SMALL
No Charge or Current Charge


@<TRIPOS>ATOM
      1 C10         -0.1050    -1.7790     0.1230 c5         1 DU9      -0.049700
      2 C11          1.1740    -0.9390     0.0230 ca         1 DU9      -0.235300
      3 C12          1.3400     0.4390    -0.2010 ca         1 DU9       0.263000
      4 C14          2.6320     0.9870    -0.2010 ca         1 DU9      -0.257000
      5 C15          3.7580     0.1720     0.0350 ca         1 DU9       0.371000
      6 C01         -7.3380     1.4930    -1.0420 c6         1 DU9       0.018800
      7 C02         -6.1640     0.5860    -0.7250 cc         1 DU9      -0.411400
      8 C03         -6.0130    -0.6140    -1.5320 c          1 DU9       0.594200
      9 C06         -4.1030    -1.0180    -0.1880 cc         1 DU9       0.755800
     10 C08         -2.2750    -2.4560    -1.1170 c6         1 DU9       0.210300
     11 C09         -0.9170    -1.7150    -1.2090 c6         1 DU9      -0.088900
     12 C17          6.1370     0.1390    -0.8120 c6         1 DU9       0.165300
     13 C18          7.5680     0.4730    -0.2810 c6         1 DU9       0.165300
     14 C19          8.6790     0.0550    -1.2740 c3         1 DU9      -0.089100
     15 C21          6.7630     2.4020     0.9100 c6         1 DU9       0.165300
     16 C22          7.0710     3.9060     1.1040 c3         1 DU9      -0.089100
     17 C23          5.2970     2.1500     0.4300 c6         1 DU9       0.165300
     18 C24          3.5770    -1.2060     0.2630 ca         1 DU9      -0.216000
     19 C25          2.2820    -1.7340     0.2190 ca         1 DU9       0.028000
     20 C28          0.4660    -3.2230     0.4220 c          1 DU9       0.567000
     21 C30         -1.0240    -1.2520     1.2680 c6         1 DU9      -0.088900
     22 C31         -2.3790    -2.0010     1.3270 c6         1 DU9       0.210300
     23 C33         -5.2720     0.8810     0.2820 cd         1 DU9       0.488600
     24 C36         -6.4130     3.0340     0.7540 c6         1 DU9       0.226800
     25 C37         -7.6800     2.3610     0.1870 c6         1 DU9      -0.091400
     26 F13          0.2760     1.2450    -0.4100 f          1 DU9      -0.172000
     27 N05         -4.9530    -1.3440    -1.1770 ns         1 DU9      -0.441400
     28 N07         -3.0810    -1.9140     0.0150 nh         1 DU9      -0.736600
     29 N16          5.0610     0.7170     0.0580 nh         1 DU9      -0.791400
     30 N26          1.8610    -3.0520     0.4800 n          1 DU9      -0.215400
     31 N32         -4.2110     0.0490     0.5760 nd         1 DU9      -0.778300
     32 N34         -5.3730     2.0250     1.0720 nh         1 DU9      -0.665400
     33 O04         -6.7510    -0.9540    -2.4420 o          1 DU9      -0.584000
     34 O20          7.7110     1.8940    -0.0560 os         1 DU9      -0.452000
     35 O29         -0.1290    -4.2850     0.5640 o          1 DU9      -0.528000
     36 H1           2.7480     2.0490    -0.3850 ha         1 DU9       0.137000
     37 H2          -7.0960     2.1440    -1.8940 hc         1 DU9       0.048200
     38 H3          -8.2310     0.9220    -1.3330 hc         1 DU9       0.048200
     39 H4          -2.7940    -2.3470    -2.0800 h1         1 DU9       0.075450
     40 H5          -2.1030    -3.5330    -0.9760 h1         1 DU9       0.075450
     41 H6          -1.1100    -0.6700    -1.4820 hc         1 DU9       0.064450
     42 H7          -0.3210    -2.1400    -2.0280 hc         1 DU9       0.064450
     43 H8           6.0340     0.5330    -1.8340 h1         1 DU9       0.050950
     44 H9           6.0410    -0.9540    -0.8790 h1         1 DU9       0.050950
     45 H10          7.7340    -0.0530     0.6700 h1         1 DU9       0.044700
     46 H11          8.5670     0.5680    -2.2370 hc         1 DU9       0.047533
     47 H12          9.6720     0.2940    -0.8760 hc         1 DU9       0.047533
     48 H13          8.6480    -1.0240    -1.4640 hc         1 DU9       0.047533
     49 H14          6.9240     1.8850     1.8670 h1         1 DU9       0.044700
     50 H15          6.9410     4.4630     0.1690 hc         1 DU9       0.047533
     51 H16          6.4050     4.3480     1.8550 hc         1 DU9       0.047533
     52 H17          8.1020     4.0540     1.4470 hc         1 DU9       0.047533
     53 H18          4.6140     2.4490     1.2390 h1         1 DU9       0.050950
     54 H19          5.0880     2.7990    -0.4330 h1         1 DU9       0.050950
     55 H20          4.4290    -1.8430     0.4750 ha         1 DU9       0.130000
     56 H21          2.2610    -5.1070     0.8570 h1         1 DU9       0.051033
     57 H22          3.3830    -4.3040    -0.2770 h1         1 DU9       0.051033
     58 H23          3.4840    -3.9650     1.4750 h1         1 DU9       0.051033
     59 H24         -0.5090    -1.3460     2.2330 hc         1 DU9       0.064450
     60 H25         -1.2260    -0.1820     1.1310 hc         1 DU9       0.064450
     61 H26         -2.2060    -3.0550     1.5890 h1         1 DU9       0.075450
     62 H27         -2.9910    -1.5830     2.1400 h1         1 DU9       0.075450
     63 H28         -4.6580     3.3130     2.6240 h1         1 DU9       0.041700
     64 H29         -4.4080     1.5780     2.9160 h1         1 DU9       0.041700
     65 H30         -3.3920     2.4400     1.7330 h1         1 DU9       0.041700
     66 H31         -6.0200     3.7480     0.0150 h1         1 DU9       0.038200
     67 H32         -6.6860     3.6070     1.6520 h1         1 DU9       0.038200
     68 H33         -8.4230     3.1240    -0.0830 hc         1 DU9       0.049200
     69 H34         -8.1390     1.7360     0.9650 hc         1 DU9       0.049200
     70 H35         -4.8100    -2.2070    -1.6690 hn         1 DU9       0.325500
     71 C27          2.8010    -4.1770     0.6440 c3         1 DU9       0.091300
     72 C35         -4.4060     2.3580     2.1440 c3         1 DU9       0.215100
@<TRIPOS>BOND
     1     1     2 1   
     2     1    11 1   
     3     1    20 1   
     4     1    21 1   
     5     2     3 ar  
     6     2    19 ar  
     7     3     4 ar  
     8     3    26 1   
     9     4     5 ar  
    10     4    36 1   
    11     5    18 ar  
    12     5    29 1   
    13     6     7 1   
    14     6    25 1   
    15     6    37 1   
    16     6    38 1   
    17     7     8 1   
    18     7    23 2   
    19     8    27 1   
    20     8    33 2   
    21     9    27 1   
    22     9    28 1   
    23     9    31 2   
    24    10    11 1   
    25    10    28 1   
    26    10    39 1   
    27    10    40 1   
    28    11    41 1   
    29    11    42 1   
    30    12    13 1   
    31    12    29 1   
    32    12    43 1   
    33    12    44 1   
    34    13    14 1   
    35    13    34 1   
    36    13    45 1   
    37    14    46 1   
    38    14    47 1   
    39    14    48 1   
    40    15    16 1   
    41    15    17 1   
    42    15    34 1   
    43    15    49 1   
    44    16    50 1   
    45    16    51 1   
    46    16    52 1   
    47    17    29 1   
    48    17    53 1   
    49    17    54 1   
    50    18    19 ar  
    51    18    55 1   
    52    19    30 1   
    53    20    30 1   
    54    20    35 2   
    55    21    22 1   
    56    21    59 1   
    57    21    60 1   
    58    22    28 1   
    59    22    61 1   
    60    22    62 1   
    61    23    31 1   
    62    23    32 1   
    63    24    25 1   
    64    24    32 1   
    65    24    66 1   
    66    24    67 1   
    67    25    68 1   
    68    25    69 1   
    69    27    70 1   
    70    30    71 1   
    71    32    72 1   
    72    56    71 1   
    73    57    71 1   
    74    58    71 1   
    75    63    72 1   
    76    64    72 1   
    77    65    72 1   
@<TRIPOS>SUBSTRUCTURE
     1 DU9         1 TEMP              0 ****  ****    0 ROOT
