@<TRIPOS>MOLECULE
DUA
   62    66     1     0     0
SMALL
abcg2


@<TRIPOS>ATOM
      1 N1           4.1050     0.1610     0.4890 n          1 DUA      -0.316000
      2 O1           1.3210     3.9620    -0.1240 oh         1 DUA      -0.703000
      3 C2           4.9900    -0.5450     1.2800 c          1 DUA       0.626000
      4 N2          -0.9750     0.2770     0.5750 n7         1 DUA      -0.874400
      5 O2           5.0770    -0.4010     2.4820 o          1 DUA      -0.555000
      6 N3           5.7790    -1.4330     0.5970 ns         1 DUA      -0.469500
      7 C4           5.7810    -1.7110    -0.7610 c          1 DUA       0.591200
      8 O4           6.5480    -2.5340    -1.2230 o          1 DUA      -0.524000
      9 C5           4.8140    -0.9410    -1.5050 cc         1 DUA      -0.381200
     10 C6           4.0340    -0.0620    -0.8570 cd         1 DUA       0.009600
     11 C1           3.1790     1.1050     1.1010 c5         1 DUA       0.331700
     12 C17         -2.2750    -0.1240     0.0520 c3         1 DUA       0.354100
     13 C18         -3.2560     1.0570    -0.0990 ca         1 DUA      -0.086633
     14 C19         -3.1640     2.1520     0.7560 ca         1 DUA      -0.099333
     15 C7           3.2310     2.5180     0.5030 c5         1 DUA      -0.168400
     16 C20         -4.0720     3.2010     0.6860 ca         1 DUA      -0.114667
     17 C21         -5.1030     3.1750    -0.2410 ca         1 DUA      -0.106333
     18 C22         -5.2150     2.0860    -1.0930 ca         1 DUA      -0.114667
     19 C23         -4.3020     1.0430    -1.0220 ca         1 DUA      -0.099333
     20 C24         -2.0180    -0.8320    -1.2860 ca         1 DUA      -0.086633
     21 C25         -1.9000    -0.1080    -2.4730 ca         1 DUA      -0.099333
     22 C26         -1.5850    -0.7350    -3.6700 ca         1 DUA      -0.114667
     23 C27         -1.3780    -2.1060    -3.7070 ca         1 DUA      -0.106333
     24 C28         -1.4830    -2.8380    -2.5340 ca         1 DUA      -0.114667
     25 C29         -1.7980    -2.2060    -1.3380 ca         1 DUA      -0.099333
     26 C3           1.8800     2.6800    -0.1970 c5         1 DUA       0.135300
     27 C30         -2.8960    -1.1110     1.0550 ca         1 DUA      -0.086633
     28 C31         -2.1430    -1.6730     2.0830 ca         1 DUA      -0.099333
     29 C32         -2.7080    -2.5850     2.9690 ca         1 DUA      -0.114667
     30 C33         -4.0330    -2.9650     2.8350 ca         1 DUA      -0.106333
     31 C34         -4.7900    -2.4240     1.8040 ca         1 DUA      -0.114667
     32 C35         -4.2270    -1.5070     0.9290 ca         1 DUA      -0.099333
     33 C8           1.0070     1.6930     0.5730 c5         1 DUA       0.160300
     34 O3           1.8750     0.6190     0.8910 os         1 DUA      -0.440000
     35 C9          -0.1800     1.1920    -0.2160 c3         1 DUA       0.178800
     36 HO1          1.7840     4.5350    -0.7410 ho         1 DUA       0.513000
     37 HN2         -1.0770     0.6350     1.5170 hn         1 DUA       0.426000
     38 H5           4.7220    -1.0790    -2.5710 ha         1 DUA       0.223000
     39 H6           3.3010     0.5210    -1.3950 h4         1 DUA       0.205000
     40 H1           3.4200     1.1250     2.1630 h2         1 DUA       0.107700
     41 H19         -2.3820     2.2080     1.5030 ha         1 DUA       0.118833
     42 H2           3.3050     3.2480     1.3110 hc         1 DUA       0.076200
     43 H2'A         4.0850     2.6660    -0.1590 hc         1 DUA       0.076200
     44 H20         -3.9680     4.0400     1.3620 ha         1 DUA       0.112500
     45 H21         -5.8090     3.9930    -0.3000 ha         1 DUA       0.112667
     46 H22         -6.0150     2.0440    -1.8210 ha         1 DUA       0.112500
     47 H23         -4.4190     0.2090    -1.7020 ha         1 DUA       0.118833
     48 H25         -2.0580     0.9630    -2.4760 ha         1 DUA       0.118833
     49 H26         -1.5020    -0.1450    -4.5740 ha         1 DUA       0.112500
     50 H27         -1.1360    -2.5990    -4.6400 ha         1 DUA       0.112667
     51 H28         -1.3230    -3.9090    -2.5440 ha         1 DUA       0.112500
     52 H29         -1.8730    -2.8050    -0.4400 ha         1 DUA       0.118833
     53 H3           1.9560     2.3500    -1.2420 h1         1 DUA       0.041700
     54 H31         -1.0990    -1.4170     2.1920 ha         1 DUA       0.118833
     55 H32         -2.0990    -3.0030     3.7610 ha         1 DUA       0.112500
     56 H33         -4.4730    -3.6750     3.5230 ha         1 DUA       0.112667
     57 H34         -5.8250    -2.7130     1.6780 ha         1 DUA       0.112500
     58 H35         -4.8460    -1.1030     0.1390 ha         1 DUA       0.118833
     59 H4           0.6620     2.1860     1.4970 h1         1 DUA       0.061700
     60 H7           0.1820     0.6830    -1.1130 h1         1 DUA       0.051700
     61 H5'A        -0.7330     2.0790    -0.5600 h1         1 DUA       0.051700
     62 HN3          6.4400    -1.9460     1.1690 hn         1 DUA       0.343500
@<TRIPOS>BOND
     1     1     3 1   
     2     1    10 1   
     3     1    11 1   
     4     2    26 1   
     5     2    36 1   
     6     3     5 2   
     7     3     6 1   
     8     4    12 1   
     9     4    35 1   
    10     4    37 1   
    11     6     7 1   
    12     6    62 1   
    13     7     8 2   
    14     7     9 1   
    15     9    10 2   
    16     9    38 1   
    17    10    39 1   
    18    11    15 1   
    19    11    34 1   
    20    11    40 1   
    21    12    13 1   
    22    12    20 1   
    23    12    27 1   
    24    13    14 ar  
    25    13    19 ar  
    26    14    16 ar  
    27    14    41 1   
    28    15    26 1   
    29    15    42 1   
    30    15    43 1   
    31    16    17 ar  
    32    16    44 1   
    33    17    18 ar  
    34    17    45 1   
    35    18    19 ar  
    36    18    46 1   
    37    19    47 1   
    38    20    21 ar  
    39    20    25 ar  
    40    21    22 ar  
    41    21    48 1   
    42    22    23 ar  
    43    22    49 1   
    44    23    24 ar  
    45    23    50 1   
    46    24    25 ar  
    47    24    51 1   
    48    25    52 1   
    49    26    33 1   
    50    26    53 1   
    51    27    28 ar  
    52    27    32 ar  
    53    28    29 ar  
    54    28    54 1   
    55    29    30 ar  
    56    29    55 1   
    57    30    31 ar  
    58    30    56 1   
    59    31    32 ar  
    60    31    57 1   
    61    32    58 1   
    62    33    34 1   
    63    33    35 1   
    64    33    59 1   
    65    35    60 1   
    66    35    61 1   
@<TRIPOS>SUBSTRUCTURE
     1 DUA         1 TEMP              0 ****  ****    0 ROOT
