@<TRIPOS>MOLECULE
DUA
   62    66     1     0     0
SMALL
No Charge or Current Charge


@<TRIPOS>ATOM
      1 N1           4.3300     0.0370     0.4920 n          1 DUA      -0.316000
      2 O1           1.6180     3.7560    -0.5000 oh         1 DUA      -0.703000
      3 C2           5.5060    -0.1690     1.2400 c          1 DUA       0.626000
      4 N2          -1.0660     0.2040     0.5840 n7         1 DUA      -0.874400
      5 O2           5.6870     0.3050     2.3500 o          1 DUA      -0.555000
      6 N3           6.4650    -0.9350     0.6520 ns         1 DUA      -0.469500
      7 C4           6.4320    -1.5290    -0.5670 c          1 DUA       0.591200
      8 O4           7.3590    -2.1970    -0.9900 o          1 DUA      -0.524000
      9 C5           5.1940    -1.2860    -1.3010 cc         1 DUA      -0.381200
     10 C6           4.1760    -0.5240    -0.7760 cd         1 DUA       0.009600
     11 C1           3.2560     0.8690     1.0920 c5         1 DUA       0.331700
     12 C17         -2.4200    -0.1310     0.0610 c3         1 DUA       0.354100
     13 C18         -3.3660     1.1060     0.0520 ca         1 DUA      -0.086633
     14 C19         -3.1080     2.2650     0.8300 ca         1 DUA      -0.099333
     15 C7           3.3640     2.2950     0.4550 c5         1 DUA      -0.168400
     16 C20         -4.0020     3.3500     0.8310 ca         1 DUA      -0.114667
     17 C21         -5.1810     3.2950     0.0730 ca         1 DUA      -0.106333
     18 C22         -5.4700     2.1470    -0.6780 ca         1 DUA      -0.114667
     19 C23         -4.5780     1.0620    -0.6800 ca         1 DUA      -0.099333
     20 C24         -2.1830    -0.7340    -1.3540 ca         1 DUA      -0.086633
     21 C25         -2.3220     0.0410    -2.5320 ca         1 DUA      -0.099333
     22 C26         -2.0690    -0.5160    -3.7980 ca         1 DUA      -0.114667
     23 C27         -1.6530    -1.8510    -3.9100 ca         1 DUA      -0.106333
     24 C28         -1.4730    -2.6240    -2.7530 ca         1 DUA      -0.114667
     25 C29         -1.7250    -2.0680    -1.4880 ca         1 DUA      -0.099333
     26 C3           2.0630     2.4030    -0.3820 c5         1 DUA       0.135300
     27 C30         -3.0960    -1.1610     1.0090 ca         1 DUA      -0.086633
     28 C31         -2.7840    -1.2210     2.3920 ca         1 DUA      -0.099333
     29 C32         -3.4260    -2.1400     3.2390 ca         1 DUA      -0.114667
     30 C33         -4.4010    -3.0100     2.7290 ca         1 DUA      -0.106333
     31 C34         -4.7390    -2.9540     1.3690 ca         1 DUA      -0.114667
     32 C35         -4.0980    -2.0360     0.5200 ca         1 DUA      -0.099333
     33 C8           1.1180     1.5100     0.4700 c5         1 DUA       0.160300
     34 O3           1.9540     0.3650     0.7320 os         1 DUA      -0.440000
     35 C9          -0.2010     1.0970    -0.2420 c3         1 DUA       0.178800
     36 HO1          2.2930     4.2380    -1.0340 ho         1 DUA       0.513000
     37 HN2         -1.1850     0.6210     1.5080 hn         1 DUA       0.426000
     38 H5           5.1280    -1.7460    -2.2810 ha         1 DUA       0.223000
     39 H6           3.2310    -0.3130    -1.2730 h4         1 DUA       0.205000
     40 H1           3.3790     0.8940     2.1840 h2         1 DUA       0.107700
     41 H19         -2.2180     2.3410     1.4480 ha         1 DUA       0.118833
     42 H2           3.3960     3.0510     1.2480 hc         1 DUA       0.076200
     43 H2'A         4.2640     2.4360    -0.1550 hc         1 DUA       0.076200
     44 H20         -3.7830     4.2330     1.4270 ha         1 DUA       0.112500
     45 H21         -5.8720     4.1350     0.0770 ha         1 DUA       0.112667
     46 H22         -6.3900     2.0960    -1.2570 ha         1 DUA       0.112500
     47 H23         -4.8330     0.1810    -1.2640 ha         1 DUA       0.118833
     48 H25         -2.6130     1.0870    -2.4770 ha         1 DUA       0.118833
     49 H26         -2.1890     0.0920    -4.6920 ha         1 DUA       0.112500
     50 H27         -1.4550    -2.2810    -4.8900 ha         1 DUA       0.112667
     51 H28         -1.1320    -3.6540    -2.8350 ha         1 DUA       0.112500
     52 H29         -1.5580    -2.6770    -0.6020 ha         1 DUA       0.118833
     53 H3           2.2030     1.9570    -1.3780 h1         1 DUA       0.041700
     54 H31         -2.0450    -0.5550     2.8280 ha         1 DUA       0.118833
     55 H32         -3.1700    -2.1750     4.2960 ha         1 DUA       0.112500
     56 H33         -4.8980    -3.7200     3.3870 ha         1 DUA       0.112667
     57 H34         -5.5000    -3.6210     0.9710 ha         1 DUA       0.112500
     58 H35         -4.3870    -2.0110    -0.5280 ha         1 DUA       0.118833
     59 H4           0.8730     1.9990     1.4230 h1         1 DUA       0.061700
     60 H7           0.0700     0.6060    -1.1860 h1         1 DUA       0.051700
     61 H5'A        -0.7380     2.0190    -0.5050 h1         1 DUA       0.051700
     62 HN3          7.3030    -1.0780     1.1910 hn         1 DUA       0.343500
@<TRIPOS>BOND
     1     1     3 1   
     2     1    10 1   
     3     1    11 1   
     4     2    26 1   
     5     2    36 1   
     6     3     5 2   
     7     3     6 1   
     8     4    12 1   
     9     4    35 1   
    10     4    37 1   
    11     6     7 1   
    12     6    62 1   
    13     7     8 2   
    14     7     9 1   
    15     9    10 2   
    16     9    38 1   
    17    10    39 1   
    18    11    15 1   
    19    11    34 1   
    20    11    40 1   
    21    12    13 1   
    22    12    20 1   
    23    12    27 1   
    24    13    14 ar  
    25    13    19 ar  
    26    14    16 ar  
    27    14    41 1   
    28    15    26 1   
    29    15    42 1   
    30    15    43 1   
    31    16    17 ar  
    32    16    44 1   
    33    17    18 ar  
    34    17    45 1   
    35    18    19 ar  
    36    18    46 1   
    37    19    47 1   
    38    20    21 ar  
    39    20    25 ar  
    40    21    22 ar  
    41    21    48 1   
    42    22    23 ar  
    43    22    49 1   
    44    23    24 ar  
    45    23    50 1   
    46    24    25 ar  
    47    24    51 1   
    48    25    52 1   
    49    26    33 1   
    50    26    53 1   
    51    27    28 ar  
    52    27    32 ar  
    53    28    29 ar  
    54    28    54 1   
    55    29    30 ar  
    56    29    55 1   
    57    30    31 ar  
    58    30    56 1   
    59    31    32 ar  
    60    31    57 1   
    61    32    58 1   
    62    33    34 1   
    63    33    35 1   
    64    33    59 1   
    65    35    60 1   
    66    35    61 1   
@<TRIPOS>SUBSTRUCTURE
     1 DUA         1 TEMP              0 ****  ****    0 ROOT
