@<TRIPOS>MOLECULE
DUB
   13    13     1     0     0
SMALL
bcc


@<TRIPOS>ATOM
      1 CL1         -2.7860    -0.5350     0.0630 cl         1 DUB      -0.094900
      2 C02         -1.2760     0.3020     0.0440 ca         1 DUB      -0.042600
      3 C03         -1.2480     1.6830    -0.0460 ca         1 DUB      -0.077500
      4 C04         -0.0300     2.3460    -0.0600 ca         1 DUB      -0.154000
      5 C05          1.1520     1.6280     0.0150 ca         1 DUB      -0.077500
      6 C06          1.1060     0.2470     0.1040 ca         1 DUB      -0.042600
      7 CL2          2.5760    -0.6660     0.1990 cl         1 DUB      -0.094900
      8 C08         -0.1030    -0.4510     0.1220 ca         1 DUB       0.162100
      9 O09         -0.2010    -1.7780     0.2080 oh         1 DUB      -0.469100
     10 H1          -2.1750     2.2360    -0.1060 ha         1 DUB       0.151500
     11 H2          -0.0020     3.4250    -0.1280 ha         1 DUB       0.144000
     12 H3           2.1080     2.1340     0.0040 ha         1 DUB       0.151500
     13 H4           0.6730    -2.1860     0.2690 ho         1 DUB       0.443000
@<TRIPOS>BOND
     1     1     2 1   
     2     2     3 ar  
     3     2     8 ar  
     4     3     4 ar  
     5     3    10 1   
     6     4     5 ar  
     7     4    11 1   
     8     5     6 ar  
     9     5    12 1   
    10     6     7 1   
    11     6     8 ar  
    12     8     9 1   
    13     9    13 1   
@<TRIPOS>SUBSTRUCTURE
     1 DUB         1 TEMP              0 ****  ****    0 ROOT
