@<TRIPOS>MOLECULE
DUB
   13    13     1     0     0
SMALL
No Charge or Current Charge


@<TRIPOS>ATOM
      1 Cl1         -2.8960    -0.5060     0.0600 cl         1 DUB      -0.186500
      2 C02         -1.3210     0.2920     0.0450 ca         1 DUB       0.049000
      3 C03         -1.2700     1.6940    -0.0480 ca         1 DUB      -0.059500
      4 C04         -0.0310     2.3570    -0.0620 ca         1 DUB      -0.136000
      5 C05          1.1630     1.6180     0.0160 ca         1 DUB      -0.059500
      6 C06          1.1180     0.2160     0.1090 ca         1 DUB       0.049000
      7 Cl2          2.6310    -0.6870     0.2060 cl         1 DUB      -0.186500
      8 C08         -0.1240    -0.4570     0.1240 ca         1 DUB       0.162100
      9 O09         -0.1660    -1.8260     0.2140 oh         1 DUB      -0.508100
     10 H1          -2.1930     2.2670    -0.1080 ha         1 DUB       0.133500
     11 H2           0.0050     3.4430    -0.1330 ha         1 DUB       0.126000
     12 H3           2.1220     2.1310     0.0050 ha         1 DUB       0.133500
     13 H4           0.7580    -2.1560     0.2590 ho         1 DUB       0.482000
@<TRIPOS>BOND
     1     1     2 1   
     2     2     3 ar  
     3     2     8 ar  
     4     3     4 ar  
     5     3    10 1   
     6     4     5 ar  
     7     4    11 1   
     8     5     6 ar  
     9     5    12 1   
    10     6     7 1   
    11     6     8 ar  
    12     8     9 1   
    13     9    13 1   
@<TRIPOS>SUBSTRUCTURE
     1 DUB         1 TEMP              0 ****  ****    0 ROOT
