@<TRIPOS>MOLECULE
DUC
   14    14     1     0     0
SMALL
No Charge or Current Charge


@<TRIPOS>ATOM
      1 N3          -0.9680    -0.0170    -0.0040 ns         1 DUC      -0.488500
      2 C2          -0.3740    -0.0130     1.2150 c          1 DUC       0.620000
      3 O2          -1.0110    -0.0530     2.2490 o          1 DUC      -0.565000
      4 N1           0.9920     0.0650     1.2020 ns         1 DUC      -0.510900
      5 C6           1.8380     0.1950     0.0100 c6         1 DUC       0.111000
      6 C5           1.1200    -0.3010    -1.2570 c6         1 DUC      -0.182400
      7 C4          -0.3840    -0.0570    -1.2320 c          1 DUC       0.579000
      8 O4          -1.0360     0.1100    -2.2500 o          1 DUC      -0.519000
      9 HN3         -1.9740     0.0410     0.0030 hn         1 DUC       0.340500
     10 HN1          1.4370     0.0720     2.1130 hn         1 DUC       0.336500
     11 H61          2.7780    -0.3560     0.1610 h1         1 DUC       0.052700
     12 H62          2.0880     1.2600    -0.1090 h1         1 DUC       0.052700
     13 H51          1.5640     0.0650    -2.1920 hc         1 DUC       0.086700
     14 H52          1.2260    -1.3930    -1.2560 hc         1 DUC       0.086700
@<TRIPOS>BOND
     1     1     2 1   
     2     1     7 1   
     3     1     9 1   
     4     2     3 2   
     5     2     4 1   
     6     4     5 1   
     7     4    10 1   
     8     5     6 1   
     9     5    11 1   
    10     5    12 1   
    11     6     7 1   
    12     6    13 1   
    13     6    14 1   
    14     7     8 2   
@<TRIPOS>SUBSTRUCTURE
     1 DUC         1 TEMP              0 ****  ****    0 ROOT
