@<TRIPOS>MOLECULE
DUC
   14    14     1     0     0
SMALL
abcg2


@<TRIPOS>ATOM
      1 N3          -0.9340     0.1130    -0.0240 ns         1 DUC      -0.488500
      2 C2          -0.3220    -0.0230     1.2220 c          1 DUC       0.620000
      3 O2          -0.9980    -0.0770     2.2340 o          1 DUC      -0.565000
      4 N1           1.0180    -0.0950     1.1880 ns         1 DUC      -0.510900
      5 C6           1.7800     0.2430     0.0050 c6         1 DUC       0.111000
      6 C5           1.1150    -0.3680    -1.2120 c6         1 DUC      -0.182400
      7 C4          -0.3520    -0.0460    -1.2550 c          1 DUC       0.579000
      8 O4          -1.0030     0.0370    -2.2740 o          1 DUC      -0.519000
      9 HN3         -1.9390     0.2330    -0.0010 hn         1 DUC       0.340500
     10 HN1          1.4870    -0.1010     2.0800 hn         1 DUC       0.336500
     11 H61          2.7870    -0.1500     0.1210 h1         1 DUC       0.052700
     12 H62          1.8610     1.3280    -0.1130 h1         1 DUC       0.052700
     13 H51          1.5850    -0.0180    -2.1300 hc         1 DUC       0.086700
     14 H52          1.2120    -1.4580    -1.1880 hc         1 DUC       0.086700
@<TRIPOS>BOND
     1     1     2 1   
     2     1     7 1   
     3     1     9 1   
     4     2     3 2   
     5     2     4 1   
     6     4     5 1   
     7     4    10 1   
     8     5     6 1   
     9     5    11 1   
    10     5    12 1   
    11     6     7 1   
    12     6    13 1   
    13     6    14 1   
    14     7     8 2   
@<TRIPOS>SUBSTRUCTURE
     1 DUC         1 TEMP              0 ****  ****    0 ROOT
