@<TRIPOS>MOLECULE
DUG
   18    18     1     0     0
SMALL
abcg2


@<TRIPOS>ATOM
      1 F           -3.1600     1.4080    -0.1020 f          1 DUG      -0.160000
      2 C02         -1.9010     0.9670    -0.0350 ca         1 DUG       0.145000
      3 C03         -1.6600    -0.3970     0.0480 ca         1 DUG       0.104000
      4 CL          -2.9890    -1.4880     0.0610 cl         1 DUG      -0.161000
      5 C05         -0.3640    -0.8670     0.1210 ca         1 DUG      -0.114000
      6 C06          0.7030     0.0310     0.1110 ca         1 DUG       0.136100
      7 O07          1.9300    -0.5200     0.1860 os         1 DUG      -0.339100
      8 C08          3.0580     0.3150     0.1820 c3         1 DUG       0.027600
      9 C09          4.2720    -0.5760     0.2630 c          1 DUG       0.581900
     10 O10          5.3890    -0.1600     0.1240 o          1 DUG      -0.500100
     11 C11          0.4550     1.3970     0.0280 ca         1 DUG      -0.170000
     12 C12         -0.8540     1.8570    -0.0450 ca         1 DUG      -0.107000
     13 H1          -0.1740    -1.9300     0.1850 ha         1 DUG       0.146000
     14 H2           3.1210     0.9290    -0.7240 h1         1 DUG       0.066700
     15 H3           3.0700     0.9940     1.0450 h1         1 DUG       0.066700
     16 H4           4.0610    -1.6390     0.4750 h4         1 DUG       0.013200
     17 H5           1.2570     2.1210     0.0170 ha         1 DUG       0.126000
     18 H6          -1.0560     2.9180    -0.1100 ha         1 DUG       0.136000
@<TRIPOS>BOND
     1     1     2 1   
     2     2     3 ar  
     3     2    12 ar  
     4     3     4 1   
     5     3     5 ar  
     6     5     6 ar  
     7     5    13 1   
     8     6     7 1   
     9     6    11 ar  
    10     7     8 1   
    11     8     9 1   
    12     8    14 1   
    13     8    15 1   
    14     9    10 2   
    15     9    16 1   
    16    11    12 ar  
    17    11    17 1   
    18    12    18 1   
@<TRIPOS>SUBSTRUCTURE
     1 DUG         1 TEMP              0 ****  ****    0 ROOT
