@<TRIPOS>MOLECULE
DUG
   18    18     1     0     0
SMALL
No Charge or Current Charge


@<TRIPOS>ATOM
      1 F           -3.2350     1.4740    -0.1060 f          1 DUG      -0.160000
      2 C02         -1.9730     0.9920    -0.0360 ca         1 DUG       0.145000
      3 C03         -1.7430    -0.3950     0.0460 ca         1 DUG       0.104000
      4 Cl          -3.0890    -1.5330     0.0590 cl         1 DUG      -0.161000
      5 C05         -0.4260    -0.8820     0.1190 ca         1 DUG      -0.114000
      6 C06          0.6620     0.0060     0.1100 ca         1 DUG       0.136100
      7 O07          1.9320    -0.5300     0.1840 os         1 DUG      -0.339100
      8 C08          3.1200     0.2950     0.1820 c3         1 DUG       0.027600
      9 C09          4.3900    -0.5640     0.2750 c          1 DUG       0.581900
     10 O10          5.5240    -0.1120     0.1420 o          1 DUG      -0.500100
     11 C11          0.4290     1.3980     0.0280 ca         1 DUG      -0.170000
     12 C12         -0.8900     1.8860    -0.0450 ca         1 DUG      -0.107000
     13 H1          -0.2480    -1.9520     0.1820 ha         1 DUG       0.146000
     14 H2           3.1850     0.8840    -0.7410 h1         1 DUG       0.066700
     15 H3           3.1200     0.9750     1.0430 h1         1 DUG       0.066700
     16 H4           4.2250    -1.6460     0.4770 h4         1 DUG       0.013200
     17 H5           1.2500     2.1090     0.0190 ha         1 DUG       0.126000
     18 H6          -1.0740     2.9560    -0.1080 ha         1 DUG       0.136000
@<TRIPOS>BOND
     1     1     2 1   
     2     2     3 ar  
     3     2    12 ar  
     4     3     4 1   
     5     3     5 ar  
     6     5     6 ar  
     7     5    13 1   
     8     6     7 1   
     9     6    11 ar  
    10     7     8 1   
    11     8     9 1   
    12     8    14 1   
    13     8    15 1   
    14     9    10 2   
    15     9    16 1   
    16    11    12 ar  
    17    11    17 1   
    18    12    18 1   
@<TRIPOS>SUBSTRUCTURE
     1 DUG         1 TEMP              0 ****  ****    0 ROOT
