@<TRIPOS>MOLECULE
DUH
   40    43     1     0     0
SMALL
abcg2


@<TRIPOS>ATOM
      1 C2           6.6080    -0.1790    -1.2170 ca         1 DUH      -0.112500
      2 C3           5.2230    -0.2210    -1.1640 ca         1 DUH      -0.079000
      3 C4           4.5500     0.2620    -0.0440 cp         1 DUH      -0.046000
      4 C5           5.2780     0.7880     1.0200 ca         1 DUH      -0.079000
      5 C6           6.6640     0.8300     0.9630 ca         1 DUH      -0.112500
      6 C7           7.3320     0.3470    -0.1540 ca         1 DUH      -0.096000
      7 C10          3.0740     0.2140     0.0150 cp         1 DUH      -0.080000
      8 C11          2.2880     0.9260    -0.8800 ca         1 DUH       0.164000
      9 C12          0.9100     0.8920    -0.8270 ca         1 DUH       0.127000
     10 C13          0.2520     0.1180     0.1200 ca         1 DUH      -0.068000
     11 C14          1.0310    -0.6030     1.0140 ca         1 DUH       0.127000
     12 C15          2.4100    -0.5440     0.9670 ca         1 DUH       0.164000
     13 F16          0.2030     1.6260    -1.6790 f          1 DUH      -0.145500
     14 F17          2.8720     1.6910    -1.8020 f          1 DUH      -0.146000
     15 F18          3.1110    -1.2640     1.8420 f          1 DUH      -0.146000
     16 F19          0.4360    -1.3670     1.9280 f          1 DUH      -0.145500
     17 N20         -1.1400     0.0720     0.1740 ns         1 DUH      -0.162000
     18 C22         -1.8700    -0.4570    -0.8670 c          1 DUH       0.668300
     19 O23         -1.3240    -0.9100    -1.8560 o          1 DUH      -0.551100
     20 C25         -3.3100    -0.4380    -0.6880 cc         1 DUH      -0.414800
     21 C26         -4.2350    -1.2750    -1.3450 cc         1 DUH       0.664900
     22 N27         -5.4810    -1.0470    -0.9930 nd         1 DUH      -0.686100
     23 N28         -5.4040    -0.0360    -0.1100 na         1 DUH       0.339400
     24 C29         -4.1180     0.3830     0.1170 cd         1 DUH      -0.016000
     25 C30         -3.9260     1.4690     0.9900 cd         1 DUH      -0.128000
     26 C31         -5.0130     2.0410     1.5930 cc         1 DUH      -0.061000
     27 C32         -6.3130     1.5550     1.3430 cc         1 DUH      -0.169000
     28 C33         -6.4870     0.5170     0.4800 cd         1 DUH      -0.059000
     29 O34         -3.9170    -2.2230    -2.2100 oh         1 DUH      -0.560600
     30 H1           7.1220    -0.5600    -2.0890 ha         1 DUH       0.116000
     31 H2           4.6660    -0.6460    -1.9890 ha         1 DUH       0.119500
     32 H3           4.7630     1.1790     1.8880 ha         1 DUH       0.119500
     33 H4           7.2210     1.2430     1.7940 ha         1 DUH       0.116000
     34 H5           8.4120     0.3800    -0.1970 ha         1 DUH       0.114000
     35 H6          -1.5660     0.1230     1.0870 hn         1 DUH       0.162000
     36 H9          -2.9330     1.8570     1.1640 ha         1 DUH       0.142000
     37 H10         -4.8760     2.8780     2.2630 ha         1 DUH       0.129000
     38 H11         -7.1750     1.9970     1.8170 ha         1 DUH       0.140000
     39 H12         -7.4430     0.0890     0.2180 h4         1 DUH       0.166000
     40 H7          -4.7140    -2.6950    -2.4860 ho         1 DUH       0.484000
@<TRIPOS>BOND
     1     1     2 ar  
     2     1     6 ar  
     3     1    30 1   
     4     2     3 ar  
     5     2    31 1   
     6     3     4 ar  
     7     3     7 1   
     8     4     5 ar  
     9     4    32 1   
    10     5     6 ar  
    11     5    33 1   
    12     6    34 1   
    13     7     8 ar  
    14     7    12 ar  
    15     8     9 ar  
    16     8    14 1   
    17     9    10 ar  
    18     9    13 1   
    19    10    11 ar  
    20    10    17 1   
    21    11    12 ar  
    22    11    16 1   
    23    12    15 1   
    24    17    18 1   
    25    17    35 1   
    26    18    19 2   
    27    18    20 1   
    28    20    21 1   
    29    20    24 2   
    30    21    22 2   
    31    21    29 1   
    32    22    23 1   
    33    23    24 1   
    34    23    28 1   
    35    24    25 1   
    36    25    26 2   
    37    25    36 1   
    38    26    27 1   
    39    26    37 1   
    40    27    28 2   
    41    27    38 1   
    42    28    39 1   
    43    29    40 1   
@<TRIPOS>SUBSTRUCTURE
     1 DUH         1 TEMP              0 ****  ****    0 ROOT
