@<TRIPOS>MOLECULE
DUH
   40    43     1     0     0
SMALL
No Charge or Current Charge


@<TRIPOS>ATOM
      1 C2           6.7880    -0.2340    -0.9010 ca         1 DUH      -0.112500
      2 C3           5.3870    -0.3270    -0.9660 ca         1 DUH      -0.079000
      3 C4           4.5680     0.3160    -0.0050 cp         1 DUH      -0.046000
      4 C5           5.2040     1.0560     1.0230 ca         1 DUH      -0.079000
      5 C6           6.6050     1.1500     1.0880 ca         1 DUH      -0.112500
      6 C7           7.3980     0.5040     0.1260 ca         1 DUH      -0.096000
      7 C10          3.0760     0.2170    -0.0750 cp         1 DUH      -0.080000
      8 C11          2.3740     0.5260    -1.2690 ca         1 DUH       0.164000
      9 C12          0.9690     0.4330    -1.3390 ca         1 DUH       0.127000
     10 C13          0.2210     0.0150    -0.2140 ca         1 DUH      -0.068000
     11 C14          0.9060    -0.2680     0.9840 ca         1 DUH       0.127000
     12 C15          2.3100    -0.1760     1.0530 ca         1 DUH       0.164000
     13 F16          0.3430     0.8100    -2.4790 f          1 DUH      -0.145500
     14 F17          3.0530     0.9550    -2.3600 f          1 DUH      -0.146000
     15 F18          2.9280    -0.4920     2.2160 f          1 DUH      -0.146000
     16 F19          0.2060    -0.6500     2.0790 f          1 DUH      -0.145500
     17 N20         -1.1990    -0.0920    -0.2310 ns         1 DUH      -0.162000
     18 C22         -2.0590    -0.5900    -1.1910 c          1 DUH       0.668300
     19 O23         -1.6500    -1.1580    -2.1950 o          1 DUH      -0.551100
     20 C25         -3.4950    -0.4200    -0.8750 cc         1 DUH      -0.414800
     21 C26         -4.5610    -0.9500    -1.6350 cc         1 DUH       0.664900
     22 N27         -5.7780    -0.7140    -1.2100 nd         1 DUH      -0.686100
     23 N28         -5.4810     0.0300    -0.0930 na         1 DUH       0.339400
     24 C29         -4.1320     0.2440     0.1490 cd         1 DUH      -0.016000
     25 C30         -3.6380     1.0310     1.2420 cd         1 DUH      -0.128000
     26 C31         -4.6140     1.5510     2.0650 cc         1 DUH      -0.061000
     27 C32         -6.0130     1.3050     1.8080 cc         1 DUH      -0.169000
     28 C33         -6.4780     0.5500     0.7330 cd         1 DUH      -0.059000
     29 O34         -4.3950    -1.6750    -2.7290 oh         1 DUH      -0.560600
     30 H1           7.4010    -0.7370    -1.6470 ha         1 DUH       0.116000
     31 H2           4.9300    -0.9080    -1.7630 ha         1 DUH       0.119500
     32 H3           4.6030     1.5690     1.7710 ha         1 DUH       0.119500
     33 H4           7.0750     1.7240     1.8840 ha         1 DUH       0.116000
     34 H5           8.4820     0.5760     0.1760 ha         1 DUH       0.114000
     35 H6          -1.6530     0.2260     0.6120 hn         1 DUH       0.162000
     36 H9          -2.5940     1.2370     1.4370 ha         1 DUH       0.142000
     37 H10         -4.3400     2.1590     2.9230 ha         1 DUH       0.129000
     38 H11         -6.7320     1.7440     2.4940 ha         1 DUH       0.140000
     39 H12         -7.5110     0.3400     0.4890 h4         1 DUH       0.166000
     40 H7          -5.3200    -1.8680    -2.9750 ho         1 DUH       0.484000
@<TRIPOS>BOND
     1     1     2 ar  
     2     1     6 ar  
     3     1    30 1   
     4     2     3 ar  
     5     2    31 1   
     6     3     4 ar  
     7     3     7 1   
     8     4     5 ar  
     9     4    32 1   
    10     5     6 ar  
    11     5    33 1   
    12     6    34 1   
    13     7     8 ar  
    14     7    12 ar  
    15     8     9 ar  
    16     8    14 1   
    17     9    10 ar  
    18     9    13 1   
    19    10    11 ar  
    20    10    17 1   
    21    11    12 ar  
    22    11    16 1   
    23    12    15 1   
    24    17    18 1   
    25    17    35 1   
    26    18    19 2   
    27    18    20 1   
    28    20    21 1   
    29    20    24 2   
    30    21    22 2   
    31    21    29 1   
    32    22    23 1   
    33    23    24 1   
    34    23    28 1   
    35    24    25 1   
    36    25    26 2   
    37    25    36 1   
    38    26    27 1   
    39    26    37 1   
    40    27    28 2   
    41    27    38 1   
    42    28    39 1   
    43    29    40 1   
@<TRIPOS>SUBSTRUCTURE
     1 DUH         1 TEMP              0 ****  ****    0 ROOT
