@<TRIPOS>MOLECULE
DUI
   31    33     1     0     0
SMALL
abcg2


@<TRIPOS>ATOM
      1 C1         -55.5370   -11.4510    27.0160 ca         1 DUI      -0.187000
      2 C2         -55.5070   -10.8620    25.7700 ca         1 DUI      -0.043000
      3 C3         -55.7150   -11.5970    24.5930 ca         1 DUI      -0.103000
      4 C4         -55.9510   -12.9370    24.7570 ca         1 DUI      -0.082600
      5 C5         -56.2160   -13.9740    23.7330 c          1 DUI       0.590600
      6 C6         -56.6910   -16.4170    23.8100 c6         1 DUI       0.038700
      7 N1         -56.3650   -15.1630    24.4270 n          1 DUI      -0.383400
      8 C7         -55.5990   -16.9720    22.9040 c6         1 DUI      -0.084400
      9 C8         -56.0540   -18.3110    22.3500 c6         1 DUI      -0.163400
     10 N2         -58.2380   -17.2290    22.0950 ns         1 DUI      -0.480500
     11 C          -55.7790   -12.8360    27.1850 ca         1 DUI       0.407000
     12 O          -56.2950   -13.8510    22.5360 o          1 DUI      -0.485000
     13 C10        -58.0240   -16.3050    23.0880 c          1 DUI       0.570000
     14 C11        -56.2580   -14.9760    25.8060 c          1 DUI       0.613600
     15 C12        -55.9840   -13.5540    26.0050 ca         1 DUI      -0.263600
     16 C9         -57.3930   -18.2410    21.6720 c          1 DUI       0.580000
     17 O3         -56.3770   -15.8570    26.6260 o          1 DUI      -0.523000
     18 H1         -55.3730   -10.8420    27.8970 ha         1 DUI       0.118000
     19 H2         -55.3180    -9.7980    25.7050 ha         1 DUI       0.120000
     20 H3         -55.6910   -11.1280    23.6200 ha         1 DUI       0.141000
     21 H4         -56.8510   -17.1350    24.6240 h1         1 DUI       0.100700
     22 H5         -54.6840   -17.1010    23.4810 hc         1 DUI       0.073200
     23 H6         -55.3800   -16.2790    22.0920 hc         1 DUI       0.073200
     24 H7         -56.1420   -19.0430    23.1600 hc         1 DUI       0.082200
     25 H8         -55.3340   -18.7140    21.6400 hc         1 DUI       0.082200
     26 H9         -59.1440   -17.1880    21.6400 hn         1 DUI       0.331500
     27 H10        -55.8050   -12.8090    29.2220 hn         1 DUI       0.493500
     28 H11        -56.1140   -14.3390    28.5320 hn         1 DUI       0.493500
     29 O1         -57.7580   -19.0160    20.8210 o          1 DUI      -0.511000
     30 O2         -58.8640   -15.4890    23.3800 o          1 DUI      -0.502000
     31 N          -55.7730   -13.4010    28.4090 nv         1 DUI      -1.097000
@<TRIPOS>BOND
     1     1     2 ar  
     2     1    11 ar  
     3     1    18 1   
     4     2     3 ar  
     5     2    19 1   
     6     3     4 ar  
     7     3    20 1   
     8     4     5 1   
     9     4    15 ar  
    10     5     7 1   
    11     5    12 2   
    12     6     7 1   
    13     6     8 1   
    14     6    13 1   
    15     6    21 1   
    16     7    14 1   
    17     8     9 1   
    18     8    22 1   
    19     8    23 1   
    20     9    16 1   
    21     9    24 1   
    22     9    25 1   
    23    10    13 1   
    24    10    16 1   
    25    10    26 1   
    26    11    15 ar  
    27    11    31 1   
    28    13    30 2   
    29    14    15 1   
    30    14    17 2   
    31    16    29 2   
    32    27    31 1   
    33    28    31 1   
@<TRIPOS>SUBSTRUCTURE
     1 DUI         1 TEMP              0 ****  ****    0 ROOT
