@<TRIPOS>MOLECULE
DUI
   31    33     1     0     0
SMALL
No Charge or Current Charge


@<TRIPOS>ATOM
      1 C1         -55.4000   -11.4130    27.0350 ca         1 DUI      -0.187000
      2 C2         -55.5480   -10.7580    25.7880 ca         1 DUI      -0.043000
      3 C3         -55.8990   -11.4910    24.6350 ca         1 DUI      -0.103000
      4 C4         -56.0930   -12.8730    24.7700 ca         1 DUI      -0.082600
      5 C5         -56.4630   -13.8960    23.7490 c          1 DUI       0.590600
      6 C6         -56.8930   -16.4110    23.8310 c6         1 DUI       0.038700
      7 N1         -56.5150   -15.1060    24.4480 n          1 DUI      -0.383400
      8 C7         -55.6600   -17.1050    23.1960 c6         1 DUI      -0.084400
      9 C8         -56.0600   -18.4000    22.4490 c6         1 DUI      -0.163400
     10 N2         -58.1490   -17.2370    21.8300 ns         1 DUI      -0.480500
     11 C          -55.5970   -12.8020    27.1480 ca         1 DUI       0.407000
     12 O          -56.6520   -13.7240    22.5530 o          1 DUI      -0.485000
     13 C10        -58.1360   -16.3750    22.8930 c          1 DUI       0.570000
     14 C11        -56.2230   -14.9530    25.8060 c          1 DUI       0.613600
     15 C12        -55.9450   -13.5080    25.9990 ca         1 DUI      -0.263600
     16 C9         -57.2560   -18.2180    21.5080 c          1 DUI       0.580000
     17 O3         -56.2130   -15.8350    26.6530 o          1 DUI      -0.523000
     18 H1         -55.1270   -10.8340    27.9130 ha         1 DUI       0.118000
     19 H2         -55.3910    -9.6840    25.7180 ha         1 DUI       0.120000
     20 H3         -56.0150   -10.9990    23.6710 ha         1 DUI       0.141000
     21 H4         -57.2320   -17.0730    24.6400 h1         1 DUI       0.100700
     22 H5         -54.9080   -17.3250    23.9670 hc         1 DUI       0.073200
     23 H6         -55.1830   -16.4160    22.4840 hc         1 DUI       0.073200
     24 H7         -56.3930   -19.1180    23.2110 hc         1 DUI       0.082200
     25 H8         -55.2250   -18.8690    21.9110 hc         1 DUI       0.082200
     26 H9         -58.9460   -17.1580    21.2160 hn         1 DUI       0.331500
     27 H10        -55.4180   -12.8770    29.2020 hn         1 DUI       0.493500
     28 H11        -55.7410   -14.4030    28.4290 hn         1 DUI       0.493500
     29 O1         -57.3890   -18.8790    20.4920 o          1 DUI      -0.511000
     30 O2         -59.0940   -15.6470    23.1050 o          1 DUI      -0.502000
     31 N          -55.4490   -13.4290    28.3470 nv         1 DUI      -1.097000
@<TRIPOS>BOND
     1     1     2 ar  
     2     1    11 ar  
     3     1    18 1   
     4     2     3 ar  
     5     2    19 1   
     6     3     4 ar  
     7     3    20 1   
     8     4     5 1   
     9     4    15 ar  
    10     5     7 1   
    11     5    12 2   
    12     6     7 1   
    13     6     8 1   
    14     6    13 1   
    15     6    21 1   
    16     7    14 1   
    17     8     9 1   
    18     8    22 1   
    19     8    23 1   
    20     9    16 1   
    21     9    24 1   
    22     9    25 1   
    23    10    13 1   
    24    10    16 1   
    25    10    26 1   
    26    11    15 ar  
    27    11    31 1   
    28    13    30 2   
    29    14    15 1   
    30    14    17 2   
    31    16    29 2   
    32    27    31 1   
    33    28    31 1   
@<TRIPOS>SUBSTRUCTURE
     1 DUI         1 TEMP              0 ****  ****    0 ROOT
