@<TRIPOS>MOLECULE
DUK
   35    37     1     0     0
SMALL
No Charge or Current Charge


@<TRIPOS>ATOM
      1 O1           3.2560    -3.7600    -0.3180 o          1 DUK      -0.588100
      2 C13          2.1300    -3.4910     0.0710 c          1 DUK       0.615100
      3 N4           1.2170    -4.4800     0.2080 nt         1 DUK      -0.596000
      4 C11          1.6500    -2.0650     0.4260 c3         1 DUK      -0.030700
      5 C12          1.2490    -1.9430     1.9200 c3         1 DUK      -0.082100
      6 S            2.9330    -0.7770    -0.0060 ss         1 DUK      -0.151200
      7 C6           2.0490     0.7490    -0.0930 cc         1 DUK       0.530800
      8 N1           0.7170     0.6450    -0.1050 nd         1 DUK      -0.677100
      9 C9           0.0620     1.8710    -0.1900 cd         1 DUK       0.170400
     10 N3          -1.2870     2.2380    -0.2240 na         1 DUK       0.221000
     11 N2          -1.5020     3.6110    -0.2840 nd         1 DUK      -0.509800
     12 C10         -0.2510     4.0570    -0.3230 cc         1 DUK       0.332900
     13 C8           0.7210     3.0420    -0.2630 cc         1 DUK      -0.333600
     14 C7           2.1570     3.1580    -0.2640 c          1 DUK       0.621600
     15 O            2.7880     4.2000    -0.3310 o          1 DUK      -0.519000
     16 N            2.7370     1.9360    -0.1780 ns         1 DUK      -0.418400
     17 C2          -2.2460     1.2330    -0.0690 ca         1 DUK       0.038800
     18 C           -2.3110     0.1540    -0.9750 ca         1 DUK      -0.110000
     19 C4          -3.1660     1.2960     0.9970 ca         1 DUK      -0.098000
     20 C5          -4.1330     0.2880     1.1630 ca         1 DUK      -0.093000
     21 C3          -4.1840    -0.7900     0.2620 ca         1 DUK      -0.105000
     22 C1          -3.2730    -0.8540    -0.8050 ca         1 DUK       0.127000
     23 Cl          -3.3350    -2.2030    -1.9310 cl         1 DUK      -0.212000
     24 H1           1.4830    -5.4280    -0.0130 hn         1 DUK       0.321500
     25 H2           0.2820    -4.2700     0.5230 hn         1 DUK       0.321500
     26 H3           0.7630    -1.8950    -0.1960 h1         1 DUK       0.102700
     27 H4           2.1070    -2.1570     2.5680 hc         1 DUK       0.055367
     28 H5           0.8920    -0.9330     2.1520 hc         1 DUK       0.055367
     29 H6           0.4450    -2.6440     2.1720 hc         1 DUK       0.055367
     30 H7          -0.0800     5.1240    -0.3830 h4         1 DUK       0.056100
     31 H8           3.7450     1.9210    -0.1730 hn         1 DUK       0.342500
     32 H9          -1.6110     0.0920    -1.8040 ha         1 DUK       0.150000
     33 H10         -3.1290     2.1270     1.6990 ha         1 DUK       0.147000
     34 H11         -4.8390     0.3400     1.9900 ha         1 DUK       0.125000
     35 H12         -4.9280    -1.5730     0.3890 ha         1 DUK       0.134000
@<TRIPOS>BOND
     1     1     2 2   
     2     2     3 1   
     3     2     4 1   
     4     3    24 1   
     5     3    25 1   
     6     4     5 1   
     7     4     6 1   
     8     4    26 1   
     9     5    27 1   
    10     5    28 1   
    11     5    29 1   
    12     6     7 1   
    13     7     8 2   
    14     7    16 1   
    15     8     9 1   
    16     9    10 1   
    17     9    13 2   
    18    10    11 1   
    19    10    17 1   
    20    11    12 2   
    21    12    13 1   
    22    12    30 1   
    23    13    14 1   
    24    14    15 2   
    25    14    16 1   
    26    16    31 1   
    27    17    18 ar  
    28    17    19 ar  
    29    18    22 ar  
    30    18    32 1   
    31    19    20 ar  
    32    19    33 1   
    33    20    21 ar  
    34    20    34 1   
    35    21    22 ar  
    36    21    35 1   
    37    22    23 1   
@<TRIPOS>SUBSTRUCTURE
     1 DUK         1 TEMP              0 ****  ****    0 ROOT
