@<TRIPOS>MOLECULE
DUK
   35    37     1     0     0
SMALL
bcc


@<TRIPOS>ATOM
      1 O1           3.5310    -3.4750    -0.0220 o          1 DUK      -0.588100
      2 C13          2.3200    -3.3360    -0.0980 c          1 DUK       0.682100
      3 N4           1.4700    -4.3000    -0.4610 nt         1 DUK      -0.663000
      4 C11          1.6540    -2.0190     0.2690 c3         1 DUK      -0.078600
      5 C12          1.0180    -2.1000     1.6520 c3         1 DUK      -0.082100
      6 S            2.9850    -0.7770     0.1780 ss         1 DUK      -0.103300
      7 C6           2.0330     0.6790     0.0290 cc         1 DUK       0.530800
      8 N1           0.7400     0.6380     0.0430 nd         1 DUK      -0.677100
      9 C9           0.1450     1.8340    -0.1010 cd         1 DUK       0.221100
     10 N3          -1.1860     2.0740    -0.1050 na         1 DUK       0.170300
     11 N2          -1.4380     3.3950    -0.2480 nd         1 DUK      -0.509800
     12 C10         -0.2790     3.9930    -0.3400 cc         1 DUK       0.398200
     13 C8           0.7730     3.0590    -0.2530 cc         1 DUK      -0.398900
     14 C7           2.2040     3.1070    -0.2680 c          1 DUK       0.764100
     15 O            2.9210     4.0790    -0.3910 o          1 DUK      -0.594500
     16 N            2.7500     1.8250    -0.1140 ns         1 DUK      -0.485400
     17 C2          -2.2440     1.1680     0.1050 ca         1 DUK       0.038800
     18 C           -2.0780    -0.1780    -0.2010 ca         1 DUK      -0.128000
     19 C4          -3.4460     1.6270     0.6310 ca         1 DUK      -0.116000
     20 C5          -4.4740     0.7260     0.8630 ca         1 DUK      -0.111000
     21 C3          -4.3190    -0.6270     0.5970 ca         1 DUK      -0.123000
     22 C1          -3.1130    -1.0560     0.0690 ca         1 DUK       0.035400
     23 CL          -2.8700    -2.7380    -0.2710 cl         1 DUK      -0.120400
     24 H1           1.8060    -5.2300    -0.6530 hn         1 DUK       0.321500
     25 H2           0.4780    -4.1480    -0.5220 hn         1 DUK       0.321500
     26 H3           0.9040    -1.7550    -0.4780 h1         1 DUK       0.102700
     27 H4           1.7410    -2.4280     2.3980 hc         1 DUK       0.055367
     28 H5           0.6220    -1.1320     1.9510 hc         1 DUK       0.055367
     29 H6           0.1860    -2.8070     1.6440 hc         1 DUK       0.055367
     30 H7          -0.2250     5.0630    -0.4690 h4         1 DUK       0.056100
     31 H8           3.7630     1.7730    -0.1240 hn         1 DUK       0.342500
     32 H9          -1.1600    -0.5440    -0.6310 ha         1 DUK       0.168000
     33 H10         -3.5790     2.6740     0.8630 ha         1 DUK       0.165000
     34 H11         -5.4080     1.0830     1.2740 ha         1 DUK       0.143000
     35 H12         -5.1180    -1.3270     0.7990 ha         1 DUK       0.152000
@<TRIPOS>BOND
     1     1     2 2   
     2     2     3 1   
     3     2     4 1   
     4     3    24 1   
     5     3    25 1   
     6     4     5 1   
     7     4     6 1   
     8     4    26 1   
     9     5    27 1   
    10     5    28 1   
    11     5    29 1   
    12     6     7 1   
    13     7     8 2   
    14     7    16 1   
    15     8     9 1   
    16     9    10 1   
    17     9    13 2   
    18    10    11 1   
    19    10    17 1   
    20    11    12 2   
    21    12    13 1   
    22    12    30 1   
    23    13    14 1   
    24    14    15 2   
    25    14    16 1   
    26    16    31 1   
    27    17    18 ar  
    28    17    19 ar  
    29    18    22 ar  
    30    18    32 1   
    31    19    20 ar  
    32    19    33 1   
    33    20    21 ar  
    34    20    34 1   
    35    21    22 ar  
    36    21    35 1   
    37    22    23 1   
@<TRIPOS>SUBSTRUCTURE
     1 DUK         1 TEMP              0 ****  ****    0 ROOT
