@<TRIPOS>MOLECULE
DUO
   64    68     1     0     0
SMALL
No Charge or Current Charge


@<TRIPOS>ATOM
      1 N1           2.4840     7.2600    -6.4010 nu         1 DUO      -0.892200
      2 C2           3.1170     5.9740    -6.9310 c5         1 DUO       0.033200
      3 C3           2.1780     4.7860    -6.5290 c          1 DUO       0.594700
      4 C4           1.2180     5.4590    -5.6140 ca         1 DUO      -0.178600
      5 C5           1.4350     6.8330    -5.5740 ca         1 DUO       0.200000
      6 C6           0.6430     7.6680    -4.7440 ca         1 DUO       0.120100
      7 C7          -0.3490     7.0850    -3.9300 ca         1 DUO      -0.081000
      8 C8          -0.5320     5.6850    -3.9730 ca         1 DUO      -0.046000
      9 C9           0.2010     4.8820    -4.8280 ca         1 DUO      -0.060300
     10 C10         -1.0200     2.9920    -6.0340 c3         1 DUO      -0.084100
     11 C11         -0.2460     3.4290    -4.7680 c5         1 DUO      -0.023400
     12 C12         -1.1710     3.4310    -3.4800 c5         1 DUO       0.102000
     13 N13         -1.4620     4.8740    -3.2680 n          1 DUO      -0.210400
     14 C14         -2.6070     5.3420    -2.5530 c          1 DUO       0.642300
     15 C15         -3.3900     4.4240    -1.6520 cc         1 DUO      -0.136300
     16 C16         -3.0790     3.1610    -1.1340 cd         1 DUO      -0.193200
     17 C17         -4.1260     2.6890    -0.2680 ca         1 DUO      -0.081800
     18 C18         -4.2460     1.5110     0.4700 ca         1 DUO      -0.149000
     19 C19         -5.4030     1.3330     1.2760 ca         1 DUO       0.098100
     20 C20         -6.4140     2.3620     1.3040 ca         1 DUO       0.097100
     21 C21         -6.2400     3.5330     0.5160 ca         1 DUO       0.098100
     22 C22         -5.0700     3.6650    -0.2510 ca         1 DUO      -0.069200
     23 N23         -4.6360     4.7180    -1.0450 na         1 DUO      -0.181700
     24 O24         -5.5490     0.1770     2.0270 os         1 DUO      -0.339100
     25 C25         -4.5730    -0.8820     2.0370 c3         1 DUO       0.145900
     26 O26         -7.5890     2.2980     2.0530 os         1 DUO      -0.339100
     27 C27         -7.9600     1.2070     2.9140 c3         1 DUO       0.151900
     28 O28         -7.1980     4.5280     0.5290 os         1 DUO      -0.345100
     29 C29         -7.9050     4.8610    -0.6790 c3         1 DUO       0.145900
     30 O30         -2.9920     6.5000    -2.6850 o          1 DUO      -0.607100
     31 O31          0.8170     9.0260    -4.7380 oh         1 DUO      -0.532100
     32 O32          2.1170     3.6300    -6.9380 o          1 DUO      -0.487100
     33 C33          3.2550     6.0490    -8.4710 c3         1 DUO      -0.062100
     34 C34          4.5170     5.6610    -6.2770 c          1 DUO       0.578100
     35 O35          5.2470     6.5010    -5.7630 o          1 DUO      -0.487000
     36 O36          4.7880     4.3160    -6.2340 os         1 DUO      -0.423100
     37 C37          6.0190     3.8850    -5.6230 c3         1 DUO       0.150900
     38 H1           3.0830     8.0010    -6.0190 hn         1 DUO       0.475000
     39 H7          -0.9400     7.7190    -3.2780 ha         1 DUO       0.166000
     40 H101        -1.8970     3.6290    -6.1990 hc         1 DUO       0.045367
     41 H102        -0.3990     3.0480    -6.9340 hc         1 DUO       0.045367
     42 H103        -1.3720     1.9570    -5.9410 hc         1 DUO       0.045367
     43 H11          0.5990     2.7410    -4.6420 hc         1 DUO       0.081700
     44 H121        -0.6050     3.0330    -2.6290 h1         1 DUO       0.061700
     45 H122        -2.0800     2.8330    -3.6260 h1         1 DUO       0.061700
     46 H16         -2.1590     2.6090    -1.2760 ha         1 DUO       0.204000
     47 H18         -3.4530     0.7720     0.4160 ha         1 DUO       0.124000
     48 H23         -5.1310     5.5980    -1.1550 hn         1 DUO       0.379000
     49 H251        -4.9010    -1.6930     2.6990 h1         1 DUO       0.042033
     50 H252        -3.6040    -0.5170     2.4010 h1         1 DUO       0.042033
     51 H253        -4.4390    -1.3000     1.0310 h1         1 DUO       0.042033
     52 H271        -8.9280     1.4140     3.3870 h1         1 DUO       0.038033
     53 H272        -7.2210     1.0690     3.7140 h1         1 DUO       0.038033
     54 H273        -8.0580     0.2740     2.3460 h1         1 DUO       0.038033
     55 H291        -7.2260     5.2360    -1.4530 h1         1 DUO       0.038700
     56 H292        -8.6540     5.6380    -0.4780 h1         1 DUO       0.038700
     57 H293        -8.4260     3.9800    -1.0740 h1         1 DUO       0.038700
     58 H31          1.3580     9.2570    -5.5250 ho         1 DUO       0.470000
     59 H331         3.6770     5.1230    -8.8800 hc         1 DUO       0.058367
     60 H332         3.9140     6.8740    -8.7680 hc         1 DUO       0.058367
     61 H333         2.2810     6.2110    -8.9480 hc         1 DUO       0.058367
     62 H371         6.1040     2.7920    -5.6650 h1         1 DUO       0.054700
     63 H372         6.8860     4.3130    -6.1430 h1         1 DUO       0.054700
     64 H373         6.0610     4.1880    -4.5680 h1         1 DUO       0.054700
@<TRIPOS>BOND
     1     1     2 1   
     2     1     5 1   
     3     1    38 1   
     4     2     3 1   
     5     2    33 1   
     6     2    34 1   
     7     3     4 1   
     8     3    32 2   
     9     4     5 ar  
    10     4     9 ar  
    11     5     6 ar  
    12     6     7 ar  
    13     6    31 1   
    14     7     8 ar  
    15     7    39 1   
    16     8     9 ar  
    17     8    13 1   
    18     9    11 1   
    19    10    11 1   
    20    10    40 1   
    21    10    41 1   
    22    10    42 1   
    23    11    12 1   
    24    11    43 1   
    25    12    13 1   
    26    12    44 1   
    27    12    45 1   
    28    13    14 1   
    29    14    15 1   
    30    14    30 2   
    31    15    16 2   
    32    15    23 1   
    33    16    17 1   
    34    16    46 1   
    35    17    18 ar  
    36    17    22 ar  
    37    18    19 ar  
    38    18    47 1   
    39    19    20 ar  
    40    19    24 1   
    41    20    21 ar  
    42    20    26 1   
    43    21    22 ar  
    44    21    28 1   
    45    22    23 1   
    46    23    48 1   
    47    24    25 1   
    48    25    49 1   
    49    25    50 1   
    50    25    51 1   
    51    26    27 1   
    52    27    52 1   
    53    27    53 1   
    54    27    54 1   
    55    28    29 1   
    56    29    55 1   
    57    29    56 1   
    58    29    57 1   
    59    31    58 1   
    60    33    59 1   
    61    33    60 1   
    62    33    61 1   
    63    34    35 2   
    64    34    36 1   
    65    36    37 1   
    66    37    62 1   
    67    37    63 1   
    68    37    64 1   
@<TRIPOS>SUBSTRUCTURE
     1 DUO         1 TEMP              0 ****  ****    0 ROOT
