@<TRIPOS>MOLECULE
DUO
   64    68     1     0     0
SMALL
abcg2


@<TRIPOS>ATOM
      1 N1           2.3340     7.0990    -6.3450 nu         1 DUO      -0.892200
      2 C2           2.9950     5.9430    -6.9510 c5         1 DUO       0.033200
      3 C3           2.1700     4.7160    -6.4310 c          1 DUO       0.594700
      4 C4           1.2150     5.2530    -5.4770 ca         1 DUO      -0.178600
      5 C5           1.3830     6.6440    -5.4370 ca         1 DUO       0.200000
      6 C6           0.5880     7.4260    -4.5900 ca         1 DUO       0.120100
      7 C7          -0.3530     6.8040    -3.7800 ca         1 DUO      -0.081000
      8 C8          -0.4990     5.4110    -3.8300 ca         1 DUO      -0.046000
      9 C9           0.2680     4.6230    -4.6750 ca         1 DUO      -0.060300
     10 C10         -0.9670     2.7350    -5.7810 c3         1 DUO      -0.084100
     11 C11         -0.1380     3.1790    -4.5690 c5         1 DUO      -0.023400
     12 C12         -0.9540     3.1790    -3.2580 c5         1 DUO       0.102000
     13 N13         -1.3580     4.5900    -3.0620 n          1 DUO      -0.210400
     14 C14         -2.4430     5.0360    -2.3730 c          1 DUO       0.642300
     15 C15         -3.1630     4.1090    -1.4860 cc         1 DUO      -0.136300
     16 C16         -2.8690     2.8970    -0.8860 cd         1 DUO      -0.193200
     17 C17         -3.9560     2.5740    -0.0220 ca         1 DUO      -0.081800
     18 C18         -4.2060     1.5030     0.8580 ca         1 DUO      -0.149000
     19 C19         -5.3760     1.5110     1.5890 ca         1 DUO       0.098100
     20 C20         -6.3340     2.5620     1.4400 ca         1 DUO       0.097100
     21 C21         -6.0970     3.6220     0.5780 ca         1 DUO       0.098100
     22 C22         -4.8940     3.6260    -0.1420 ca         1 DUO      -0.069200
     23 N23         -4.3930     4.5390    -1.0260 na         1 DUO      -0.181700
     24 O24         -5.7210     0.5600     2.5020 os         1 DUO      -0.339100
     25 C25         -4.8260    -0.5320     2.6930 c3         1 DUO       0.145900
     26 O26         -7.4710     2.5620     2.2040 os         1 DUO      -0.339100
     27 C27         -8.4860     1.6370     1.7820 c3         1 DUO       0.151900
     28 O28         -6.9850     4.6610     0.4760 os         1 DUO      -0.345100
     29 C29         -7.8000     4.6410    -0.7080 c3         1 DUO       0.145900
     30 O30         -2.8370     6.2080    -2.4600 o          1 DUO      -0.607100
     31 O31          0.7140     8.7840    -4.5130 oh         1 DUO      -0.532100
     32 O32          2.3230     3.5740    -6.8140 o          1 DUO      -0.487100
     33 C33          2.9580     5.9950    -8.4800 c3         1 DUO      -0.062100
     34 C34          4.4240     5.8210    -6.4110 c          1 DUO       0.578100
     35 O35          4.8620     6.4960    -5.5070 o          1 DUO      -0.487000
     36 O36          5.1110     4.8840    -7.0510 os         1 DUO      -0.423100
     37 C37          6.4660     4.6520    -6.6040 c3         1 DUO       0.150900
     38 H1           2.9740     7.8050    -6.0020 hn         1 DUO       0.475000
     39 H7          -0.9650     7.4040    -3.1280 ha         1 DUO       0.166000
     40 H101        -1.8600     3.3550    -5.8780 hc         1 DUO       0.045367
     41 H102        -0.3830     2.8250    -6.6970 hc         1 DUO       0.045367
     42 H103        -1.2790     1.6950    -5.6680 hc         1 DUO       0.045367
     43 H11          0.7290     2.5260    -4.4680 hc         1 DUO       0.081700
     44 H121        -0.3340     2.8580    -2.4190 h1         1 DUO       0.061700
     45 H122        -1.8320     2.5420    -3.3180 h1         1 DUO       0.061700
     46 H16         -1.9770     2.3120    -1.0160 ha         1 DUO       0.204000
     47 H18         -3.4830     0.7090     0.9620 ha         1 DUO       0.124000
     48 H23         -4.7850     5.4360    -1.2620 hn         1 DUO       0.379000
     49 H251        -5.2890    -1.1690     3.4420 h1         1 DUO       0.042033
     50 H252        -3.8550    -0.1840     3.0560 h1         1 DUO       0.042033
     51 H253        -4.6870    -1.0940     1.7660 h1         1 DUO       0.042033
     52 H271        -9.3060     1.7370     2.4910 h1         1 DUO       0.038033
     53 H272        -8.1090     0.6140     1.7950 h1         1 DUO       0.038033
     54 H273        -8.8350     1.8890     0.7780 h1         1 DUO       0.038033
     55 H291        -7.1850     4.6800    -1.6100 h1         1 DUO       0.038700
     56 H292        -8.4320     5.5250    -0.6590 h1         1 DUO       0.038700
     57 H293        -8.4200     3.7430    -0.7290 h1         1 DUO       0.038700
     58 H31          1.1840     9.1270    -5.2860 ho         1 DUO       0.470000
     59 H331         3.3500     5.0710    -8.8990 hc         1 DUO       0.058367
     60 H332         3.5500     6.8350    -8.8430 hc         1 DUO       0.058367
     61 H333         1.9260     6.1260    -8.8040 hc         1 DUO       0.058367
     62 H371         6.8440     3.8550    -7.2350 h1         1 DUO       0.054700
     63 H372         7.0580     5.5570    -6.7300 h1         1 DUO       0.054700
     64 H373         6.4650     4.3500    -5.5580 h1         1 DUO       0.054700
@<TRIPOS>BOND
     1     1     2 1   
     2     1     5 1   
     3     1    38 1   
     4     2     3 1   
     5     2    33 1   
     6     2    34 1   
     7     3     4 1   
     8     3    32 2   
     9     4     5 ar  
    10     4     9 ar  
    11     5     6 ar  
    12     6     7 ar  
    13     6    31 1   
    14     7     8 ar  
    15     7    39 1   
    16     8     9 ar  
    17     8    13 1   
    18     9    11 1   
    19    10    11 1   
    20    10    40 1   
    21    10    41 1   
    22    10    42 1   
    23    11    12 1   
    24    11    43 1   
    25    12    13 1   
    26    12    44 1   
    27    12    45 1   
    28    13    14 1   
    29    14    15 1   
    30    14    30 2   
    31    15    16 2   
    32    15    23 1   
    33    16    17 1   
    34    16    46 1   
    35    17    18 ar  
    36    17    22 ar  
    37    18    19 ar  
    38    18    47 1   
    39    19    20 ar  
    40    19    24 1   
    41    20    21 ar  
    42    20    26 1   
    43    21    22 ar  
    44    21    28 1   
    45    22    23 1   
    46    23    48 1   
    47    24    25 1   
    48    25    49 1   
    49    25    50 1   
    50    25    51 1   
    51    26    27 1   
    52    27    52 1   
    53    27    53 1   
    54    27    54 1   
    55    28    29 1   
    56    29    55 1   
    57    29    56 1   
    58    29    57 1   
    59    31    58 1   
    60    33    59 1   
    61    33    60 1   
    62    33    61 1   
    63    34    35 2   
    64    34    36 1   
    65    36    37 1   
    66    37    62 1   
    67    37    63 1   
    68    37    64 1   
@<TRIPOS>SUBSTRUCTURE
     1 DUO         1 TEMP              0 ****  ****    0 ROOT
