@<TRIPOS>MOLECULE
DUQ
   69    72     1     0     0
SMALL
bcc


@<TRIPOS>ATOM
      1 O4          -8.2510     0.2140    -0.2940 o          1 DUQ      -0.601500
      2 C4          -7.1010     0.5750    -0.4610 c          1 DUQ       0.732700
      3 N3          -6.3030     0.9070     0.6250 ns         1 DUQ      -0.603500
      4 C2          -4.9990     1.3260     0.6170 c          1 DUQ       0.822500
      5 O2          -4.3940     1.5940     1.6350 o          1 DUQ      -0.640500
      6 C5          -6.4260     0.7100    -1.7270 cc         1 DUQ      -0.334200
      7 C6          -5.1450     1.1160    -1.7550 cd         1 DUQ       0.064600
      8 N1          -4.4290     1.4210    -0.6350 n          1 DUQ      -0.381000
      9 C1          -3.0300     1.8230    -0.7340 c3         1 DUQ       0.121000
     10 C9          -2.0620     0.7170    -0.3170 c3         1 DUQ      -0.167700
     11 C38         -2.3860    -0.5620    -1.0730 c          1 DUQ       0.661100
     12 N34         -2.6170    -1.6390    -0.3100 ns         1 DUQ      -0.550900
     13 C39         -2.7480    -2.9750    -0.8450 c3         1 DUQ       0.094000
     14 C40         -1.4020    -3.6590    -0.9930 c3         1 DUQ       0.110400
     15 O37         -0.8020    -3.7200     0.2810 oh         1 DUQ      -0.616800
     16 O38         -2.4340    -0.5770    -2.2960 o          1 DUQ      -0.619100
     17 C7          -0.6280     1.1500    -0.6270 c3         1 DUQ      -0.075400
     18 C8           0.4040     0.2060    -0.0330 c3         1 DUQ       0.139400
     19 O1           1.6710     0.6270    -0.4970 os         1 DUQ      -0.413600
     20 C17          2.8100     0.1850     0.2090 c3         1 DUQ       0.315700
     21 C30          2.9620     0.9450     1.5310 ca         1 DUQ      -0.098967
     22 C31          2.2110     2.0890     1.7840 ca         1 DUQ      -0.109833
     23 C32          2.3980     2.8200     2.9510 ca         1 DUQ      -0.134667
     24 C33          3.3470     2.4280     3.8810 ca         1 DUQ      -0.127667
     25 C34          4.1150     1.2980     3.6300 ca         1 DUQ      -0.134667
     26 C35          3.9260     0.5690     2.4660 ca         1 DUQ      -0.109833
     27 C24          2.7300    -1.3350     0.3670 ca         1 DUQ      -0.098967
     28 C25          2.4140    -1.9560     1.5690 ca         1 DUQ      -0.109833
     29 C26          2.2910    -3.3390     1.6460 ca         1 DUQ      -0.134667
     30 C27          2.4600    -4.1190     0.5120 ca         1 DUQ      -0.127667
     31 C28          2.7330    -3.5040    -0.7060 ca         1 DUQ      -0.134667
     32 C29          2.8630    -2.1260    -0.7750 ca         1 DUQ      -0.109833
     33 C18          4.0130     0.5910    -0.6450 ca         1 DUQ      -0.098967
     34 C19          3.9300     1.6740    -1.5160 ca         1 DUQ      -0.109833
     35 C20          5.0410     2.0800    -2.2450 ca         1 DUQ      -0.134667
     36 C21          6.2520     1.4150    -2.1120 ca         1 DUQ      -0.127667
     37 C22          6.3440     0.3390    -1.2390 ca         1 DUQ      -0.134667
     38 C23          5.2330    -0.0680    -0.5140 ca         1 DUQ      -0.109833
     39 H3          -6.7240     0.8280     1.5430 hn         1 DUQ       0.341500
     40 H5          -6.9510     0.4850    -2.6420 ha         1 DUQ       0.175000
     41 H6          -4.6120     1.2280    -2.6880 h4         1 DUQ       0.169000
     42 H1'1        -2.8520     2.1110    -1.7690 h1         1 DUQ       0.073200
     43 H1'2        -2.8650     2.7060    -0.1190 h1         1 DUQ       0.073200
     44 H1          -2.1600     0.5570     0.7600 hc         1 DUQ       0.081700
     45 H4'1        -0.4950     1.2150    -1.7100 hc         1 DUQ       0.064200
     46 H4'2        -0.4650     2.1550    -0.2270 hc         1 DUQ       0.064200
     47 H34         -2.4690    -1.5560     0.6820 hn         1 DUQ       0.324500
     48 H391        -3.3910    -3.5480    -0.1750 h1         1 DUQ       0.067700
     49 H392        -3.2460    -2.9320    -1.8120 h1         1 DUQ       0.067700
     50 H401        -1.5580    -4.6570    -1.4220 h1         1 DUQ       0.033200
     51 H402        -0.7880    -3.0940    -1.7040 h1         1 DUQ       0.033200
     52 H37          0.1490    -3.8220     0.1790 ho         1 DUQ       0.415000
     53 H5'1         0.3380     0.2330     1.0620 h1         1 DUQ       0.036200
     54 H5'2         0.2130    -0.8320    -0.3320 h1         1 DUQ       0.036200
     55 H31          1.4780     2.4340     1.0670 ha         1 DUQ       0.139500
     56 H35          4.5450    -0.3030     2.2970 ha         1 DUQ       0.139500
     57 H32          1.7980     3.7040     3.1250 ha         1 DUQ       0.132333
     58 H33          3.4910     2.9960     4.7910 ha         1 DUQ       0.132333
     59 HA           4.8660     0.9810     4.3420 ha         1 DUQ       0.132333
     60 H25          2.2620    -1.3680     2.4650 ha         1 DUQ       0.139500
     61 H29          3.0800    -1.6670    -1.7320 ha         1 DUQ       0.139500
     62 H26          2.0560    -3.8030     2.5950 ha         1 DUQ       0.132333
     63 H27          2.3770    -5.1970     0.5720 ha         1 DUQ       0.132333
     64 H28          2.8500    -4.1010    -1.6010 ha         1 DUQ       0.132333
     65 H19          3.0000     2.2120    -1.6330 ha         1 DUQ       0.139500
     66 H23          5.3260    -0.9140     0.1560 ha         1 DUQ       0.139500
     67 H20          4.9570     2.9210    -2.9210 ha         1 DUQ       0.132333
     68 H21          7.1150     1.7300    -2.6840 ha         1 DUQ       0.132333
     69 H22          7.2800    -0.1910    -1.1240 ha         1 DUQ       0.132333
@<TRIPOS>BOND
     1     1     2 2   
     2     2     3 1   
     3     2     6 1   
     4     3     4 1   
     5     3    39 1   
     6     4     5 2   
     7     4     8 1   
     8     6     7 2   
     9     6    40 1   
    10     7     8 1   
    11     7    41 1   
    12     8     9 1   
    13     9    10 1   
    14     9    42 1   
    15     9    43 1   
    16    10    11 1   
    17    10    17 1   
    18    10    44 1   
    19    11    12 1   
    20    11    16 2   
    21    12    13 1   
    22    12    47 1   
    23    13    14 1   
    24    13    48 1   
    25    13    49 1   
    26    14    15 1   
    27    14    50 1   
    28    14    51 1   
    29    15    52 1   
    30    17    18 1   
    31    17    45 1   
    32    17    46 1   
    33    18    19 1   
    34    18    53 1   
    35    18    54 1   
    36    19    20 1   
    37    20    21 1   
    38    20    27 1   
    39    20    33 1   
    40    21    22 ar  
    41    21    26 ar  
    42    22    23 ar  
    43    22    55 1   
    44    23    24 ar  
    45    23    57 1   
    46    24    25 ar  
    47    24    58 1   
    48    25    26 ar  
    49    25    59 1   
    50    26    56 1   
    51    27    28 ar  
    52    27    32 ar  
    53    28    29 ar  
    54    28    60 1   
    55    29    30 ar  
    56    29    62 1   
    57    30    31 ar  
    58    30    63 1   
    59    31    32 ar  
    60    31    64 1   
    61    32    61 1   
    62    33    34 ar  
    63    33    38 ar  
    64    34    35 ar  
    65    34    65 1   
    66    35    36 ar  
    67    35    67 1   
    68    36    37 ar  
    69    36    68 1   
    70    37    38 ar  
    71    37    69 1   
    72    38    66 1   
@<TRIPOS>SUBSTRUCTURE
     1 DUQ         1 TEMP              0 ****  ****    0 ROOT
