@<TRIPOS>MOLECULE
DUQ
   69    72     1     0     0
SMALL
No Charge or Current Charge


@<TRIPOS>ATOM
      1 O4          -8.4090     0.5280    -0.0290 o          1 DUQ      -0.526000
      2 C4          -7.2490     0.7650    -0.3150 c          1 DUQ       0.590200
      3 N3          -6.4700     1.5810     0.4380 ns         1 DUQ      -0.469500
      4 C2          -5.1700     1.9260     0.2340 c          1 DUQ       0.613000
      5 O2          -4.6010     2.6780     1.0080 o          1 DUQ      -0.565000
      6 C5          -6.5630     0.2190    -1.4810 cc         1 DUQ      -0.384200
      7 C6          -5.2490     0.5180    -1.7590 cd         1 DUQ       0.014600
      8 N1          -4.5440     1.3580    -0.8990 n          1 DUQ      -0.314000
      9 C1          -3.1320     1.7080    -1.1910 c3         1 DUQ       0.121000
     10 C9          -2.1150     0.7250    -0.5640 c3         1 DUQ      -0.167700
     11 C38         -2.3240    -0.6960    -1.1080 c          1 DUQ       0.594100
     12 N34         -2.6880    -1.6360    -0.1730 ns         1 DUQ      -0.483900
     13 C39         -2.7710    -3.0780    -0.4400 c3         1 DUQ       0.094000
     14 C40         -1.3780    -3.7520    -0.4430 c3         1 DUQ       0.133600
     15 O37         -0.7490    -3.5970     0.8380 oh         1 DUQ      -0.679000
     16 O38         -2.1720    -0.9780    -2.2880 o          1 DUQ      -0.619100
     17 C7          -0.6490     1.1950    -0.7780 c3         1 DUQ      -0.075400
     18 C8           0.4060     0.2970    -0.0960 c3         1 DUQ       0.162600
     19 O1           1.7000     0.8040    -0.4810 os         1 DUQ      -0.460000
     20 C17          2.8720     0.2640     0.1890 c3         1 DUQ       0.338900
     21 C30          3.0080     0.8840     1.6060 ca         1 DUQ      -0.098967
     22 C31          2.2190     1.9820     2.0310 ca         1 DUQ      -0.091833
     23 C32          2.3940     2.5460     3.3070 ca         1 DUQ      -0.116667
     24 C33          3.3730     2.0380     4.1750 ca         1 DUQ      -0.109667
     25 C34          4.1860     0.9740     3.7590 ca         1 DUQ      -0.116667
     26 C35          4.0130     0.4110     2.4840 ca         1 DUQ      -0.091833
     27 C24          2.7350    -1.2850     0.1700 ca         1 DUQ      -0.098967
     28 C25          2.4450    -2.0390     1.3340 ca         1 DUQ      -0.091833
     29 C26          2.3380    -3.4390     1.2760 ca         1 DUQ      -0.116667
     30 C27          2.4800    -4.1080     0.0510 ca         1 DUQ      -0.109667
     31 C28          2.7250    -3.3740    -1.1190 ca         1 DUQ      -0.116667
     32 C29          2.8480    -1.9750    -1.0600 ca         1 DUQ      -0.091833
     33 C18          4.1080     0.7340    -0.6160 ca         1 DUQ      -0.098967
     34 C19          4.0950     1.9710    -1.3030 ca         1 DUQ      -0.091833
     35 C20          5.2240     2.4100    -2.0170 ca         1 DUQ      -0.116667
     36 C21          6.3870     1.6270    -2.0480 ca         1 DUQ      -0.109667
     37 C22          6.4240     0.4060    -1.3570 ca         1 DUQ      -0.116667
     38 C23          5.2970    -0.0350    -0.6420 ca         1 DUQ      -0.091833
     39 H3          -6.9080     1.9840     1.2510 hn         1 DUQ       0.341500
     40 H5          -7.1550    -0.4330    -2.1140 ha         1 DUQ       0.225000
     41 H6          -4.6880     0.1470    -2.6150 h4         1 DUQ       0.219000
     42 H1'1        -2.9890     1.7310    -2.2800 h1         1 DUQ       0.073200
     43 H1'2        -2.9260     2.7240    -0.8300 h1         1 DUQ       0.073200
     44 H1          -2.3020     0.7130     0.5170 hc         1 DUQ       0.081700
     45 H4'1        -0.4360     1.2360    -1.8530 hc         1 DUQ       0.064200
     46 H4'2        -0.5360     2.2170    -0.3940 hc         1 DUQ       0.064200
     47 H34         -2.7780    -1.3220     0.7850 hn         1 DUQ       0.324500
     48 H391        -3.4010    -3.5470     0.3270 h1         1 DUQ       0.067700
     49 H392        -3.2530    -3.2380    -1.4130 h1         1 DUQ       0.067700
     50 H401        -1.4930    -4.8170    -0.6850 h1         1 DUQ       0.033200
     51 H402        -0.7600    -3.2960    -1.2280 h1         1 DUQ       0.033200
     52 H37          0.2220    -3.6510     0.6890 ho         1 DUQ       0.454000
     53 H5'1         0.2680     0.3260     0.9930 h1         1 DUQ       0.036200
     54 H5'2         0.2790    -0.7400    -0.4340 h1         1 DUQ       0.036200
     55 H31          1.4700     2.4190     1.3750 ha         1 DUQ       0.121500
     56 H35          4.6620    -0.4070     2.1790 ha         1 DUQ       0.121500
     57 H32          1.7740     3.3830     3.6200 ha         1 DUQ       0.114333
     58 H33          3.5080     2.4770     5.1610 ha         1 DUQ       0.114333
     59 HA           4.9560     0.5880     4.4240 ha         1 DUQ       0.114333
     60 H25          2.2960    -1.5510     2.2930 ha         1 DUQ       0.121500
     61 H29          3.0350    -1.4210    -1.9770 ha         1 DUQ       0.121500
     62 H26          2.1370    -4.0050     2.1840 ha         1 DUQ       0.114333
     63 H27          2.3950    -5.1930     0.0060 ha         1 DUQ       0.114333
     64 H28          2.8240    -3.8870    -2.0730 ha         1 DUQ       0.114333
     65 H19          3.2110     2.6030    -1.2820 ha         1 DUQ       0.121500
     66 H23          5.3550    -0.9800    -0.1070 ha         1 DUQ       0.121500
     67 H20          5.1960     3.3620    -2.5430 ha         1 DUQ       0.114333
     68 H21          7.2610     1.9680    -2.6000 ha         1 DUQ       0.114333
     69 H22          7.3270    -0.2000    -1.3720 ha         1 DUQ       0.114333
@<TRIPOS>BOND
     1     1     2 2   
     2     2     3 1   
     3     2     6 1   
     4     3     4 1   
     5     3    39 1   
     6     4     5 2   
     7     4     8 1   
     8     6     7 2   
     9     6    40 1   
    10     7     8 1   
    11     7    41 1   
    12     8     9 1   
    13     9    10 1   
    14     9    42 1   
    15     9    43 1   
    16    10    11 1   
    17    10    17 1   
    18    10    44 1   
    19    11    12 1   
    20    11    16 2   
    21    12    13 1   
    22    12    47 1   
    23    13    14 1   
    24    13    48 1   
    25    13    49 1   
    26    14    15 1   
    27    14    50 1   
    28    14    51 1   
    29    15    52 1   
    30    17    18 1   
    31    17    45 1   
    32    17    46 1   
    33    18    19 1   
    34    18    53 1   
    35    18    54 1   
    36    19    20 1   
    37    20    21 1   
    38    20    27 1   
    39    20    33 1   
    40    21    22 ar  
    41    21    26 ar  
    42    22    23 ar  
    43    22    55 1   
    44    23    24 ar  
    45    23    57 1   
    46    24    25 ar  
    47    24    58 1   
    48    25    26 ar  
    49    25    59 1   
    50    26    56 1   
    51    27    28 ar  
    52    27    32 ar  
    53    28    29 ar  
    54    28    60 1   
    55    29    30 ar  
    56    29    62 1   
    57    30    31 ar  
    58    30    63 1   
    59    31    32 ar  
    60    31    64 1   
    61    32    61 1   
    62    33    34 ar  
    63    33    38 ar  
    64    34    35 ar  
    65    34    65 1   
    66    35    36 ar  
    67    35    67 1   
    68    36    37 ar  
    69    36    68 1   
    70    37    38 ar  
    71    37    69 1   
    72    38    66 1   
@<TRIPOS>SUBSTRUCTURE
     1 DUQ         1 TEMP              0 ****  ****    0 ROOT
