@<TRIPOS>MOLECULE
DUR
   28    29     1     0     0
SMALL
No Charge or Current Charge


@<TRIPOS>ATOM
      1 N1          -0.1800     0.5730    -1.0350 n          1 DUR      -0.321000
      2 C2           0.3330    -0.7140    -1.3350 c          1 DUR       0.625000
      3 N3           0.4860    -1.0010    -2.6560 ns         1 DUR      -0.471500
      4 C4           0.1990    -0.2210    -3.7270 c          1 DUR       0.590200
      5 C5          -0.3430     1.0840    -3.3660 cc         1 DUR      -0.378200
      6 C6          -0.5230     1.4590    -2.0550 cd         1 DUR       0.009600
      7 O2           0.6100    -1.5620    -0.5030 o          1 DUR      -0.563000
      8 O4           0.3800    -0.5950    -4.8720 o          1 DUR      -0.524000
      9 C1          -0.3200     1.0320     0.3740 c5         1 DUR       0.350700
     10 C7          -1.6330     0.4210     0.9570 c5         1 DUR      -0.148400
     11 C3          -1.1060    -0.4530     2.1290 c5         1 DUR       0.139300
     12 C8           0.1770     0.3410     2.5180 c5         1 DUR       0.168300
     13 O3          -2.0620    -0.5490     3.1920 oh         1 DUR      -0.711000
     14 O1           0.7600     0.6110     1.2260 os         1 DUR      -0.433000
     15 C9           1.1720    -0.4350     3.4260 c3         1 DUR       0.163600
     16 O5           2.2540     0.4100     3.8700 oh         1 DUR      -0.710000
     17 HN3          0.8520    -1.9160    -2.8640 hn         1 DUR       0.340500
     18 H5          -0.5910     1.7380    -4.1950 ha         1 DUR       0.224000
     19 H6          -0.9190     2.4200    -1.7300 h4         1 DUR       0.205000
     20 H1          -0.3760     2.1280     0.3630 h2         1 DUR       0.062700
     21 H2'1        -2.2920     1.2220     1.3100 hc         1 DUR       0.073200
     22 H2'2        -2.2040    -0.1660     0.2280 hc         1 DUR       0.073200
     23 H3          -0.8250    -1.4540     1.7700 h1         1 DUR       0.072700
     24 H4          -0.0850     1.2920     3.0030 h1         1 DUR       0.074700
     25 HO3         -2.8330    -1.0580     2.8450 ho         1 DUR       0.512000
     26 H5'1         1.5580    -1.2990     2.8700 h1         1 DUR       0.036200
     27 H5'2         0.6190    -0.8210     4.2940 h1         1 DUR       0.036200
     28 HO5          2.8690    -0.1600     4.3890 ho         1 DUR       0.505000
@<TRIPOS>BOND
     1     1     2 1   
     2     1     6 1   
     3     1     9 1   
     4     2     3 1   
     5     2     7 2   
     6     3     4 1   
     7     3    17 1   
     8     4     5 1   
     9     4     8 2   
    10     5     6 2   
    11     5    18 1   
    12     6    19 1   
    13     9    10 1   
    14     9    14 1   
    15     9    20 1   
    16    10    11 1   
    17    10    21 1   
    18    10    22 1   
    19    11    12 1   
    20    11    13 1   
    21    11    23 1   
    22    12    14 1   
    23    12    15 1   
    24    12    24 1   
    25    13    25 1   
    26    15    16 1   
    27    15    26 1   
    28    15    27 1   
    29    16    28 1   
@<TRIPOS>SUBSTRUCTURE
     1 DUR         1 TEMP              0 ****  ****    0 ROOT
