@<TRIPOS>MOLECULE
DUR
   28    29     1     0     0
SMALL
bcc


@<TRIPOS>ATOM
      1 N1          -0.2580     0.5860    -0.9810 n          1 DUR      -0.388000
      2 C2           0.0720    -0.7370    -1.1960 c          1 DUR       0.834500
      3 N3           0.3930    -1.0450    -2.4930 ns         1 DUR      -0.605500
      4 C4           0.4360    -0.1980    -3.5910 c          1 DUR       0.732700
      5 C5           0.1160     1.1700    -3.2660 cc         1 DUR      -0.328200
      6 C6          -0.2090     1.4900    -2.0030 cd         1 DUR       0.059600
      7 O2           0.0760    -1.5740    -0.3200 o          1 DUR      -0.638500
      8 O4           0.7240    -0.6280    -4.6930 o          1 DUR      -0.599500
      9 C1          -0.6340     1.0440     0.3580 c5         1 DUR       0.327500
     10 C7          -1.8050     0.3110     1.0170 c5         1 DUR      -0.148400
     11 C3          -1.1860    -0.4240     2.2050 c5         1 DUR       0.116100
     12 C8           0.0850     0.3870     2.4640 c5         1 DUR       0.145100
     13 O3          -1.9790    -0.4280     3.3660 oh         1 DUR      -0.588800
     14 O1           0.4680     0.9350     1.2130 os         1 DUR      -0.386600
     15 C9           1.2080    -0.4410     3.0360 c3         1 DUR       0.140400
     16 O5           2.2950     0.3980     3.3490 oh         1 DUR      -0.587800
     17 HN3          0.6180    -2.0180    -2.6590 hn         1 DUR       0.340500
     18 H5           0.1340     1.9240    -4.0370 ha         1 DUR       0.174000
     19 H6          -0.4590     2.5060    -1.7320 h4         1 DUR       0.155000
     20 H1          -0.8940     2.0950     0.2110 h2         1 DUR       0.062700
     21 H2'1        -2.5080     1.0550     1.3930 hc         1 DUR       0.073200
     22 H2'2        -2.3490    -0.3360     0.3310 hc         1 DUR       0.073200
     23 H3          -0.9200    -1.4440     1.9150 h1         1 DUR       0.072700
     24 H4          -0.1600     1.1990     3.1650 h1         1 DUR       0.074700
     25 HO3         -2.5490    -1.2010     3.3410 ho         1 DUR       0.413000
     26 H5'1         1.4820    -1.2180     2.3100 h1         1 DUR       0.036200
     27 H5'2         0.8190    -0.9510     3.9260 h1         1 DUR       0.036200
     28 HO5          2.9620    -0.1310     3.7960 ho         1 DUR       0.406000
@<TRIPOS>BOND
     1     1     2 1   
     2     1     6 1   
     3     1     9 1   
     4     2     3 1   
     5     2     7 2   
     6     3     4 1   
     7     3    17 1   
     8     4     5 1   
     9     4     8 2   
    10     5     6 2   
    11     5    18 1   
    12     6    19 1   
    13     9    10 1   
    14     9    14 1   
    15     9    20 1   
    16    10    11 1   
    17    10    21 1   
    18    10    22 1   
    19    11    12 1   
    20    11    13 1   
    21    11    23 1   
    22    12    14 1   
    23    12    15 1   
    24    12    24 1   
    25    13    25 1   
    26    15    16 1   
    27    15    26 1   
    28    15    27 1   
    29    16    28 1   
@<TRIPOS>SUBSTRUCTURE
     1 DUR         1 TEMP              0 ****  ****    0 ROOT
