@<TRIPOS>MOLECULE
DUS
   31    32     1     0     0
SMALL
No Charge or Current Charge


@<TRIPOS>ATOM
      1 O7          -5.1180    -0.2430     0.4540 o          1 DUS      -0.709533
      2 S           -4.3350     0.8210    -0.1890 s6         1 DUS       1.499300
      3 O5          -4.9170     1.3350    -1.4370 o          1 DUS      -0.709533
      4 O6          -3.8610     1.8620     0.7350 o          1 DUS      -0.709533
      5 O4          -2.9640     0.0660    -0.6800 os         1 DUS      -0.591700
      6 C8          -2.1660    -0.5310     0.3610 c3         1 DUS       0.214600
      7 C7          -0.9270    -1.2060    -0.2820 c5         1 DUS       0.170300
      8 C           -0.1250    -2.1360     0.6750 c5         1 DUS       0.130300
      9 O           -0.7640    -3.3930     0.9200 oh         1 DUS      -0.704000
     10 O3           0.0690    -0.2260    -0.6390 os         1 DUS      -0.418000
     11 C2           1.2780    -0.9560    -0.9160 c5         1 DUS       0.348700
     12 C1           1.1890    -2.3060    -0.1370 c5         1 DUS      -0.153400
     13 N            2.5150    -0.2530    -0.4780 n          1 DUS      -0.317000
     14 C6           3.6470    -0.3460    -1.2910 cc         1 DUS       0.021600
     15 C5           4.7870     0.3350    -0.9370 cd         1 DUS      -0.399200
     16 C4           4.8540     1.1570     0.2700 c          1 DUS       0.595200
     17 O1           5.8410     1.7810     0.6170 o          1 DUS      -0.547000
     18 N1           3.7020     1.1600     0.9840 ns         1 DUS      -0.471500
     19 C3           2.5340     0.5130     0.7140 c          1 DUS       0.622000
     20 O2           1.6060     0.6000     1.5000 o          1 DUS      -0.541000
     21 H1          -1.8260     0.2160     1.0920 h1         1 DUS       0.049200
     22 H2          -2.7390    -1.2990     0.8980 h1         1 DUS       0.049200
     23 H3          -1.2420    -1.7510    -1.1830 h1         1 DUS       0.073700
     24 H4           0.0710    -1.6110     1.6230 h1         1 DUS       0.073700
     25 H5          -0.1550    -3.9240     1.4850 ho         1 DUS       0.498000
     26 H6           1.3620    -1.1360    -1.9950 h2         1 DUS       0.051700
     27 H7           2.0530    -2.4980     0.5100 hc         1 DUS       0.059700
     28 H8           1.1250    -3.1410    -0.8430 hc         1 DUS       0.059700
     29 H9           3.5210    -0.9730    -2.1700 h4         1 DUS       0.200000
     30 H10          5.6930     0.3040    -1.5310 ha         1 DUS       0.215000
     31 H11          3.7110     1.7050     1.8300 hn         1 DUS       0.338500
@<TRIPOS>BOND
     1     1     2 1   
     2     2     3 1   
     3     2     4 1   
     4     2     5 1   
     5     5     6 1   
     6     6     7 1   
     7     6    21 1   
     8     6    22 1   
     9     7     8 1   
    10     7    10 1   
    11     7    23 1   
    12     8     9 1   
    13     8    12 1   
    14     8    24 1   
    15     9    25 1   
    16    10    11 1   
    17    11    12 1   
    18    11    13 1   
    19    11    26 1   
    20    12    27 1   
    21    12    28 1   
    22    13    14 1   
    23    13    19 1   
    24    14    15 2   
    25    14    29 1   
    26    15    16 1   
    27    15    30 1   
    28    16    17 2   
    29    16    18 1   
    30    18    19 1   
    31    18    31 1   
    32    19    20 2   
@<TRIPOS>SUBSTRUCTURE
     1 DUS         1 TEMP              0 ****  ****    0 ROOT
