@<TRIPOS>MOLECULE
DUS
   31    32     1     0     0
SMALL
bcc


@<TRIPOS>ATOM
      1 O7          -4.8040     0.1500     0.2630 o          1 DUS      -0.709533
      2 S           -3.8210     1.1300    -0.2060 s6         1 DUS       1.499300
      3 O5          -4.1650     1.7820    -1.4680 o          1 DUS      -0.709533
      4 O6          -3.3460     2.0350     0.8420 o          1 DUS      -0.709533
      5 O4          -2.5090     0.2530    -0.6640 os         1 DUS      -0.568500
      6 C8          -1.8450    -0.4920     0.3460 c3         1 DUS       0.191400
      7 C7          -0.8570    -1.4200    -0.3130 c5         1 DUS       0.147100
      8 C           -0.1720    -2.3530     0.6880 c5         1 DUS       0.107100
      9 O           -0.9360    -3.5260     0.8090 oh         1 DUS      -0.581800
     10 O3           0.1720    -0.6730    -0.9390 os         1 DUS      -0.371600
     11 C2           1.3990    -1.3390    -0.8590 c5         1 DUS       0.325500
     12 C1           1.2080    -2.5490     0.0610 c5         1 DUS      -0.153400
     13 N            2.4390    -0.3870    -0.4680 n          1 DUS      -0.384000
     14 C6           3.4160    -0.0570    -1.3650 cc         1 DUS       0.071600
     15 C5           4.3920     0.8290    -1.1120 cd         1 DUS      -0.349200
     16 C4           4.4310     1.4950     0.1650 c          1 DUS       0.737700
     17 O1           5.2560     2.3150     0.5240 o          1 DUS      -0.622500
     18 N1           3.3980     1.1180     1.0100 ns         1 DUS      -0.605500
     19 C3           2.3940     0.2160     0.7730 c          1 DUS       0.831500
     20 O2           1.5420    -0.0270     1.6000 o          1 DUS      -0.616500
     21 H1          -1.3220     0.1720     1.0420 h1         1 DUS       0.049200
     22 H2          -2.5530    -1.1000     0.9180 h1         1 DUS       0.049200
     23 H3          -1.3740    -2.0380    -1.0610 h1         1 DUS       0.073700
     24 H4          -0.0740    -1.8550     1.6560 h1         1 DUS       0.073700
     25 H5          -0.6340    -4.0020     1.5880 ho         1 DUS       0.399000
     26 H6           1.7070    -1.6770    -1.8520 h2         1 DUS       0.051700
     27 H7           2.0090    -2.6630     0.7890 hc         1 DUS       0.059700
     28 H8           1.1920    -3.4500    -0.5550 hc         1 DUS       0.059700
     29 H9           3.3620    -0.5690    -2.3150 h4         1 DUS       0.150000
     30 H10          5.1390     1.0490    -1.8580 ha         1 DUS       0.165000
     31 H11          3.3720     1.5570     1.9230 hn         1 DUS       0.338500
@<TRIPOS>BOND
     1     1     2 1   
     2     2     3 1   
     3     2     4 1   
     4     2     5 1   
     5     5     6 1   
     6     6     7 1   
     7     6    21 1   
     8     6    22 1   
     9     7     8 1   
    10     7    10 1   
    11     7    23 1   
    12     8     9 1   
    13     8    12 1   
    14     8    24 1   
    15     9    25 1   
    16    10    11 1   
    17    11    12 1   
    18    11    13 1   
    19    11    26 1   
    20    12    27 1   
    21    12    28 1   
    22    13    14 1   
    23    13    19 1   
    24    14    15 2   
    25    14    29 1   
    26    15    16 1   
    27    15    30 1   
    28    16    17 2   
    29    16    18 1   
    30    18    19 1   
    31    18    31 1   
    32    19    20 2   
@<TRIPOS>SUBSTRUCTURE
     1 DUS         1 TEMP              0 ****  ****    0 ROOT
