@<TRIPOS>MOLECULE
DUU
  101   102     1     0     0
SMALL
abcg2


@<TRIPOS>ATOM
      1 C10         -9.1880     5.5720   -14.9640 c          1 DUU       0.584100
      2 N12         -9.4160     4.5340   -15.7840 ns         1 DUU      -0.501900
      3 C13         -9.8420     4.6640   -17.1620 c3         1 DUU       0.101000
      4 C15         -7.5650     5.4770   -17.9350 c3         1 DUU      -0.077400
      5 C17         -5.1460     6.0060   -18.5320 c3         1 DUU       0.154500
      6 C22         -5.3580     7.4880   -18.2010 c          1 DUU       0.570100
      7 C26         -4.7610     9.4990   -21.3140 c3         1 DUU      -0.076400
      8 C28         -2.7930    10.1550   -19.8230 c          1 DUU       0.609100
      9 C01         -5.1400     3.6010   -13.7580 c3         1 DUU       0.021700
     10 C02         -6.6640     3.7000   -13.8300 c          1 DUU       0.594100
     11 C04         -8.6190     5.1730   -13.5950 c3         1 DUU       0.029700
     12 C05         -8.8890     6.2280   -12.5300 c3         1 DUU      -0.079400
     13 C06         -8.3480     5.8570   -11.1510 c3         1 DUU      -0.072400
     14 C07         -8.8580     4.5280   -10.6080 c3         1 DUU      -0.085400
     15 C08         -8.4560     4.3040    -9.1580 c3         1 DUU       0.150800
     16 C14         -8.7050     4.4960   -18.1660 c3         1 DUU      -0.097400
     17 C16         -6.4600     5.3550   -18.9790 c3         1 DUU      -0.079400
     18 C25         -5.4050     8.3230   -20.5960 c3         1 DUU       0.104000
     19 C27         -3.2480     9.5700   -21.1440 c3         1 DUU      -0.161400
     20 C31         -1.0640    10.0020   -18.0640 c3         1 DUU       0.144300
     21 C32         -1.4700     9.1910   -16.8590 ca         1 DUU      -0.115300
     22 C33         -2.7700     9.2700   -16.3660 ca         1 DUU      -0.102000
     23 C34         -3.1790     8.4590   -15.3240 ca         1 DUU      -0.092500
     24 C35         -2.3080     7.5370   -14.7500 ca         1 DUU      -0.083300
     25 C36         -0.9990     7.4850   -15.2110 ca         1 DUU      -0.092500
     26 C37         -0.5830     8.3090   -16.2530 ca         1 DUU      -0.102000
     27 C38         -2.8150     6.5930   -13.7000 c3         1 DUU      -0.110100
     28 C39         -3.6010     5.4430   -14.3070 c          1 DUU       0.607100
     29 C43         -4.7290     2.5240   -12.7480 c3         1 DUU      -0.089400
     30 C44         -3.2300     2.2570   -12.7480 c3         1 DUU      -0.076400
     31 C45         -2.8470     1.1130   -11.8180 c3         1 DUU      -0.079400
     32 C46         -1.3500     0.8460   -11.8080 c3         1 DUU       0.150800
     33 N03         -7.1950     4.9240   -13.7060 ns         1 DUU      -0.492900
     34 N09         -8.9230     3.0110    -8.6790 n8         1 DUU      -0.994200
     35 N18         -4.1030     5.6890   -19.4780 nu         1 DUU      -0.913400
     36 N20         -2.3060     6.0920   -18.0720 nv         1 DUU      -1.105200
     37 N21         -2.0850     6.2290   -20.4100 n2         1 DUU      -0.963100
     38 N24         -5.2520     8.4380   -19.1580 ns         1 DUU      -0.496900
     39 N30         -1.7180     9.5580   -19.2780 ns         1 DUU      -0.504900
     40 N41         -4.4910     4.8610   -13.4700 ns         1 DUU      -0.512900
     41 N47         -1.0240    -0.2660   -10.9270 n8         1 DUU      -0.995200
     42 O11         -9.3990     6.7370   -15.2610 o          1 DUU      -0.598100
     43 O23         -5.6280     7.7900   -17.0480 o          1 DUU      -0.610100
     44 O29         -3.3230    11.1490   -19.3400 o          1 DUU      -0.622100
     45 O40         -3.4250     5.0560   -15.4490 o          1 DUU      -0.596100
     46 O42         -7.3350     2.6890   -13.9840 o          1 DUU      -0.618100
     47 H121        -9.1740     3.6110   -15.4570 hn         1 DUU       0.329500
     48 H132       -10.3020     5.6440   -17.2800 h1         1 DUU       0.057200
     49 H131       -10.6180     3.9200   -17.3520 h1         1 DUU       0.057200
     50 H151        -7.1400     5.2970   -16.9450 hc         1 DUU       0.058700
     51 H152        -7.9610     6.4950   -17.9150 hc         1 DUU       0.058700
     52 H171        -4.9050     5.5530   -17.5660 h1         1 DUU       0.096700
     53 H262        -5.2240    10.4370   -20.9960 hc         1 DUU       0.058700
     54 H261        -4.9910     9.3920   -22.3750 hc         1 DUU       0.058700
     55 H011        -4.8110     3.2870   -14.7520 h1         1 DUU       0.109700
     56 H041        -9.0870     4.2330   -13.2960 h1         1 DUU       0.084700
     57 H052        -8.4650     7.1850   -12.8430 hc         1 DUU       0.064200
     58 H051        -9.9700     6.3770   -12.4670 hc         1 DUU       0.064200
     59 H061        -7.2530     5.8440   -11.1670 hc         1 DUU       0.035700
     60 H062        -8.6230     6.6590   -10.4600 hc         1 DUU       0.035700
     61 H072        -9.9510     4.4940   -10.6910 hc         1 DUU       0.051700
     62 H071        -8.4760     3.6940   -11.2040 hc         1 DUU       0.051700
     63 H081        -7.3640     4.3190    -9.0850 h1         1 DUU       0.023700
     64 H082        -8.8150     5.1510    -8.5560 h1         1 DUU       0.023700
     65 H141        -9.1220     4.6250   -19.1690 hc         1 DUU       0.043700
     66 H142        -8.3210     3.4720   -18.1210 hc         1 DUU       0.043700
     67 H161        -6.7940     5.7720   -19.9360 hc         1 DUU       0.048700
     68 H162        -6.2430     4.2980   -19.1610 hc         1 DUU       0.048700
     69 H251        -6.4660     8.2750   -20.8640 h1         1 DUU       0.042700
     70 H252        -4.9450     7.4050   -20.9500 h1         1 DUU       0.042700
     71 H272        -2.8100     8.5830   -21.3130 hc         1 DUU       0.072200
     72 H271        -2.8380    10.2270   -21.9170 hc         1 DUU       0.072200
     73 H312         0.0150     9.9340   -18.2110 h1         1 DUU       0.064700
     74 H311        -1.3010    11.0550   -17.9180 h1         1 DUU       0.064700
     75 H331        -3.4750     9.9570   -16.8160 ha         1 DUU       0.125000
     76 H341        -4.1980     8.5240   -14.9690 ha         1 DUU       0.122000
     77 H361        -0.2990     6.7840   -14.7710 ha         1 DUU       0.122000
     78 H371         0.4380     8.2410   -16.6100 ha         1 DUU       0.125000
     79 H381        -1.9810     6.1510   -13.1460 hc         1 DUU       0.066200
     80 H382        -3.4290     7.1190   -12.9650 hc         1 DUU       0.066200
     81 H431        -5.0550     2.8170   -11.7440 hc         1 DUU       0.063200
     82 H432        -5.2620     1.6040   -12.9930 hc         1 DUU       0.063200
     83 H441        -2.9040     2.0250   -13.7680 hc         1 DUU       0.039700
     84 H442        -2.6890     3.1600   -12.4500 hc         1 DUU       0.039700
     85 H451        -3.1800     1.3460   -10.8010 hc         1 DUU       0.049700
     86 H452        -3.3710     0.2000   -12.1150 hc         1 DUU       0.049700
     87 H461        -1.0290     0.5850   -12.8200 h1         1 DUU       0.025700
     88 H462        -0.8250     1.7790   -11.5520 h1         1 DUU       0.025700
     89 H031        -6.5710     5.7160   -13.6560 hn         1 DUU       0.333500
     90 H2          -8.6240     2.8780    -7.7210 hn         1 DUU       0.392500
     91 H1          -9.9360     3.0150    -8.6460 hn         1 DUU       0.392500
     92 H181        -4.3780     5.5660   -20.4390 hn         1 DUU       0.489000
     93 H3          -2.8880     5.9810   -17.2550 hn         1 DUU       0.489500
     94 H201        -1.4740     6.6290   -17.9060 hn         1 DUU       0.489500
     95 H241        -5.4570     9.3630   -18.8020 hn         1 DUU       0.311500
     96 H301        -1.4230     8.6790   -19.6730 hn         1 DUU       0.318500
     97 H411        -4.4870     5.1650   -12.5070 hn         1 DUU       0.309500
     98 H4          -0.0290    -0.4440   -10.9590 hn         1 DUU       0.392000
     99 H471        -1.2230    -0.0020    -9.9690 hn         1 DUU       0.392000
    100 H212        -1.1020     6.3200   -20.1790 hn         1 DUU       0.373400
    101 C19         -2.7850     6.0420   -19.3420 c2         1 DUU       0.846100
@<TRIPOS>BOND
     1     1     2 1   
     2     1    11 1   
     3     1    42 2   
     4     2     3 1   
     5     2    47 1   
     6     3    16 1   
     7     3    48 1   
     8     3    49 1   
     9     4    16 1   
    10     4    17 1   
    11     4    50 1   
    12     4    51 1   
    13     5     6 1   
    14     5    17 1   
    15     5    35 1   
    16     5    52 1   
    17     6    38 1   
    18     6    43 2   
    19     7    18 1   
    20     7    19 1   
    21     7    53 1   
    22     7    54 1   
    23     8    19 1   
    24     8    39 1   
    25     8    44 2   
    26     9    10 1   
    27     9    29 1   
    28     9    40 1   
    29     9    55 1   
    30    10    33 1   
    31    10    46 2   
    32    11    12 1   
    33    11    33 1   
    34    11    56 1   
    35    12    13 1   
    36    12    57 1   
    37    12    58 1   
    38    13    14 1   
    39    13    59 1   
    40    13    60 1   
    41    14    15 1   
    42    14    61 1   
    43    14    62 1   
    44    15    34 1   
    45    15    63 1   
    46    15    64 1   
    47    16    65 1   
    48    16    66 1   
    49    17    67 1   
    50    17    68 1   
    51    18    38 1   
    52    18    69 1   
    53    18    70 1   
    54    19    71 1   
    55    19    72 1   
    56    20    21 1   
    57    20    39 1   
    58    20    73 1   
    59    20    74 1   
    60    21    22 ar  
    61    21    26 ar  
    62    22    23 ar  
    63    22    75 1   
    64    23    24 ar  
    65    23    76 1   
    66    24    25 ar  
    67    24    27 1   
    68    25    26 ar  
    69    25    77 1   
    70    26    78 1   
    71    27    28 1   
    72    27    79 1   
    73    27    80 1   
    74    28    40 1   
    75    28    45 2   
    76    29    30 1   
    77    29    81 1   
    78    29    82 1   
    79    30    31 1   
    80    30    83 1   
    81    30    84 1   
    82    31    32 1   
    83    31    85 1   
    84    31    86 1   
    85    32    41 1   
    86    32    87 1   
    87    32    88 1   
    88    33    89 1   
    89    34    90 1   
    90    34    91 1   
    91    35    92 1   
    92    35   101 1   
    93    36    93 1   
    94    36    94 1   
    95    36   101 1   
    96    37   100 1   
    97    37   101 2   
    98    38    95 1   
    99    39    96 1   
   100    40    97 1   
   101    41    98 1   
   102    41    99 1   
@<TRIPOS>SUBSTRUCTURE
     1 DUU         1 TEMP              0 ****  ****    0 ROOT
