@<TRIPOS>MOLECULE
DUU
  101   102     1     0     0
SMALL
No Charge or Current Charge


@<TRIPOS>ATOM
      1 C10         -9.4160     5.2390   -15.0820 c          1 DUU       0.584100
      2 N12         -9.2120     4.1460   -15.8980 ns         1 DUU      -0.501900
      3 C13         -9.5150     4.0880   -17.3300 c3         1 DUU       0.101000
      4 C15         -7.2940     5.3140   -17.8560 c3         1 DUU      -0.077400
      5 C17         -4.9630     6.3710   -18.1800 c3         1 DUU       0.154500
      6 C22         -5.5370     7.8410   -18.1600 c          1 DUU       0.570100
      7 C26         -4.6660     9.3550   -21.5480 c3         1 DUU      -0.076400
      8 C28         -2.9910    10.5150   -19.9540 c          1 DUU       0.609100
      9 C01         -5.2570     3.2860   -13.9900 c3         1 DUU       0.021700
     10 C02         -6.8050     3.4790   -14.0000 c          1 DUU       0.594100
     11 C04         -8.6880     5.1690   -13.7020 c3         1 DUU       0.029700
     12 C05         -8.7980     6.4840   -12.8810 c3         1 DUU      -0.079400
     13 C06         -8.0850     6.4680   -11.5040 c3         1 DUU      -0.072400
     14 C07         -8.6130     5.3950   -10.5230 c3         1 DUU      -0.085400
     15 C08         -7.9380     5.4690    -9.1390 c3         1 DUU       0.150800
     16 C14         -8.2250     4.1200   -18.1800 c3         1 DUU      -0.097400
     17 C16         -5.9960     5.3380   -18.6940 c3         1 DUU      -0.079400
     18 C25         -5.3340     8.2840   -20.6560 c3         1 DUU       0.104000
     19 C27         -3.1770     9.6670   -21.2210 c3         1 DUU      -0.161400
     20 C31         -2.1250    10.4820   -17.5910 c3         1 DUU       0.144300
     21 C32         -2.2300     9.4290   -16.5000 ca         1 DUU      -0.115300
     22 C33         -3.4230     9.2790   -15.7700 ca         1 DUU      -0.102000
     23 C34         -3.5610     8.2360   -14.8380 ca         1 DUU      -0.092500
     24 C35         -2.5010     7.3380   -14.6190 ca         1 DUU      -0.083300
     25 C36         -1.2920     7.5130   -15.3190 ca         1 DUU      -0.092500
     26 C37         -1.1560     8.5550   -16.2520 ca         1 DUU      -0.102000
     27 C38         -2.6710     6.1630   -13.6650 c3         1 DUU      -0.110100
     28 C39         -3.4150     5.0000   -14.3330 c          1 DUU       0.607100
     29 C43         -4.8250     2.1350   -13.0420 c3         1 DUU      -0.089400
     30 C44         -3.3140     1.8000   -13.0870 c3         1 DUU      -0.076400
     31 C45         -2.9360     0.5930   -12.2000 c3         1 DUU      -0.079400
     32 C46         -1.4290     0.2660   -12.2470 c3         1 DUU       0.150800
     33 N03         -7.2660     4.7720   -13.8670 ns         1 DUU      -0.492900
     34 N09         -8.4640     4.4400    -8.2250 n8         1 DUU      -0.994200
     35 N18         -3.6650     6.1850   -18.8930 nu         1 DUU      -0.913400
     36 N20         -2.2420     5.1300   -18.0850 nv         1 DUU      -1.105200
     37 N21         -1.7930     6.9680   -19.0780 n2         1 DUU      -0.963100
     38 N24         -5.3630     8.6790   -19.2460 ns         1 DUU      -0.496900
     39 N30         -2.3850     9.8800   -18.8980 ns         1 DUU      -0.504900
     40 N41         -4.5260     4.5390   -13.6540 ns         1 DUU      -0.512900
     41 N47         -1.1000    -0.8920   -11.3960 n8         1 DUU      -0.995200
     42 O11        -10.0680     6.2060   -15.4530 o          1 DUU      -0.598100
     43 O23         -6.0530     8.3080   -17.1560 o          1 DUU      -0.610100
     44 O29         -3.3270    11.6900   -19.9010 o          1 DUU      -0.622100
     45 O40         -3.0330     4.4910   -15.3770 o          1 DUU      -0.596100
     46 O42         -7.5870     2.5450   -14.1090 o          1 DUU      -0.618100
     47 H121        -8.6770     3.3850   -15.4850 hn         1 DUU       0.329500
     48 H132       -10.1580     4.9320   -17.6120 h1         1 DUU       0.057200
     49 H131       -10.0680     3.1620   -17.5380 h1         1 DUU       0.057200
     50 H151        -7.0140     5.2760   -16.7960 hc         1 DUU       0.058700
     51 H152        -7.8480     6.2490   -18.0060 hc         1 DUU       0.058700
     52 H171        -4.7980     6.1330   -17.1190 h1         1 DUU       0.096700
     53 H262        -5.2520    10.2820   -21.5060 hc         1 DUU       0.058700
     54 H261        -4.7240     9.0060   -22.5870 hc         1 DUU       0.058700
     55 H011        -5.0040     2.9990   -15.0190 h1         1 DUU       0.109700
     56 H041        -9.1970     4.3740   -13.1430 h1         1 DUU       0.084700
     57 H052        -8.3850     7.3090   -13.4750 hc         1 DUU       0.064200
     58 H051        -9.8590     6.7170   -12.7250 hc         1 DUU       0.064200
     59 H061        -7.0060     6.3300   -11.6460 hc         1 DUU       0.035700
     60 H062        -8.2090     7.4560   -11.0430 hc         1 DUU       0.035700
     61 H072        -9.6970     5.5170   -10.4050 hc         1 DUU       0.051700
     62 H071        -8.4430     4.3970   -10.9450 hc         1 DUU       0.051700
     63 H081        -6.8540     5.3210    -9.2470 h1         1 DUU       0.023700
     64 H082        -8.1120     6.4570    -8.6920 h1         1 DUU       0.023700
     65 H141        -8.4990     4.1480   -19.2420 hc         1 DUU       0.043700
     66 H142        -7.6750     3.1850   -18.0190 hc         1 DUU       0.043700
     67 H161        -6.2400     5.5420   -19.7430 hc         1 DUU       0.048700
     68 H162        -5.5380     4.3410   -18.6610 hc         1 DUU       0.048700
     69 H251        -6.3700     8.1410   -20.9890 h1         1 DUU       0.042700
     70 H252        -4.8140     7.3320   -20.7930 h1         1 DUU       0.042700
     71 H272        -2.6250     8.7250   -21.1330 hc         1 DUU       0.072200
     72 H271        -2.7660    10.2400   -22.0600 hc         1 DUU       0.072200
     73 H312        -1.1190    10.9210   -17.5940 h1         1 DUU       0.064700
     74 H311        -2.8480    11.2870   -17.4000 h1         1 DUU       0.064700
     75 H331        -4.2600     9.9510   -15.9490 ha         1 DUU       0.125000
     76 H341        -4.5010     8.1160   -14.3050 ha         1 DUU       0.122000
     77 H361        -0.4630     6.8260   -15.1610 ha         1 DUU       0.122000
     78 H371        -0.2280     8.6580   -16.8100 ha         1 DUU       0.125000
     79 H381        -1.6890     5.7870   -13.3550 hc         1 DUU       0.066200
     80 H382        -3.1950     6.4720   -12.7540 hc         1 DUU       0.066200
     81 H431        -5.1100     2.3910   -12.0130 hc         1 DUU       0.063200
     82 H432        -5.3870     1.2300   -13.3060 hc         1 DUU       0.063200
     83 H441        -3.0220     1.5910   -14.1240 hc         1 DUU       0.039700
     84 H442        -2.7340     2.6720   -12.7590 hc         1 DUU       0.039700
     85 H451        -3.2300     0.8020   -11.1640 hc         1 DUU       0.049700
     86 H452        -3.5060    -0.2860   -12.5270 hc         1 DUU       0.049700
     87 H461        -1.1320     0.0380   -13.2800 h1         1 DUU       0.025700
     88 H462        -0.8500     1.1340   -11.9020 h1         1 DUU       0.025700
     89 H031        -6.5560     5.4950   -13.8330 hn         1 DUU       0.333500
     90 H2          -8.0330     4.5620    -7.3000 hn         1 DUU       0.392500
     91 H1          -9.4590     4.6240    -8.0520 hn         1 DUU       0.392500
     92 H181        -3.5630     6.7330   -19.7350 hn         1 DUU       0.489000
     93 H3          -2.9140     4.6480   -18.6550 hn         1 DUU       0.489500
     94 H201        -2.4230     4.9160   -17.1090 hn         1 DUU       0.489500
     95 H241        -5.6290     9.6380   -19.0610 hn         1 DUU       0.311500
     96 H301        -2.1440     8.8980   -19.0270 hn         1 DUU       0.318500
     97 H411        -4.7180     4.9820   -12.7620 hn         1 DUU       0.309500
     98 H4          -0.0820    -1.0360   -11.4080 hn         1 DUU       0.392000
     99 H471        -1.2960    -0.6520   -10.4170 hn         1 DUU       0.392000
    100 H212        -0.8930     6.4860   -18.9920 hn         1 DUU       0.373400
    101 C19         -2.5250     6.3560   -18.3070 c2         1 DUU       0.846100
@<TRIPOS>BOND
     1     1     2 1   
     2     1    11 1   
     3     1    42 2   
     4     2     3 1   
     5     2    47 1   
     6     3    16 1   
     7     3    48 1   
     8     3    49 1   
     9     4    16 1   
    10     4    17 1   
    11     4    50 1   
    12     4    51 1   
    13     5     6 1   
    14     5    17 1   
    15     5    35 1   
    16     5    52 1   
    17     6    38 1   
    18     6    43 2   
    19     7    18 1   
    20     7    19 1   
    21     7    53 1   
    22     7    54 1   
    23     8    19 1   
    24     8    39 1   
    25     8    44 2   
    26     9    10 1   
    27     9    29 1   
    28     9    40 1   
    29     9    55 1   
    30    10    33 1   
    31    10    46 2   
    32    11    12 1   
    33    11    33 1   
    34    11    56 1   
    35    12    13 1   
    36    12    57 1   
    37    12    58 1   
    38    13    14 1   
    39    13    59 1   
    40    13    60 1   
    41    14    15 1   
    42    14    61 1   
    43    14    62 1   
    44    15    34 1   
    45    15    63 1   
    46    15    64 1   
    47    16    65 1   
    48    16    66 1   
    49    17    67 1   
    50    17    68 1   
    51    18    38 1   
    52    18    69 1   
    53    18    70 1   
    54    19    71 1   
    55    19    72 1   
    56    20    21 1   
    57    20    39 1   
    58    20    73 1   
    59    20    74 1   
    60    21    22 ar  
    61    21    26 ar  
    62    22    23 ar  
    63    22    75 1   
    64    23    24 ar  
    65    23    76 1   
    66    24    25 ar  
    67    24    27 1   
    68    25    26 ar  
    69    25    77 1   
    70    26    78 1   
    71    27    28 1   
    72    27    79 1   
    73    27    80 1   
    74    28    40 1   
    75    28    45 2   
    76    29    30 1   
    77    29    81 1   
    78    29    82 1   
    79    30    31 1   
    80    30    83 1   
    81    30    84 1   
    82    31    32 1   
    83    31    85 1   
    84    31    86 1   
    85    32    41 1   
    86    32    87 1   
    87    32    88 1   
    88    33    89 1   
    89    34    90 1   
    90    34    91 1   
    91    35    92 1   
    92    35   101 1   
    93    36    93 1   
    94    36    94 1   
    95    36   101 1   
    96    37   100 1   
    97    37   101 2   
    98    38    95 1   
    99    39    96 1   
   100    40    97 1   
   101    41    98 1   
   102    41    99 1   
@<TRIPOS>SUBSTRUCTURE
     1 DUU         1 TEMP              0 ****  ****    0 ROOT
