@<TRIPOS>MOLECULE
DUV
   20    19     1     0     0
SMALL
No Charge or Current Charge


@<TRIPOS>ATOM
      1 O1          -2.7060    -1.0490     0.9660 o          1 DUV      -0.719500
      2 C2          -2.4240    -0.5150    -0.0950 c          1 DUV       0.732000
      3 O3          -3.1460    -0.5330    -1.0780 o          1 DUV      -0.719500
      4 C4          -1.0990     0.2140    -0.2030 c3         1 DUV      -0.333700
      5 C5           0.1170    -0.7120     0.0790 c3         1 DUV      -0.050400
      6 C6           1.4840    -0.0210    -0.1390 c3         1 DUV      -0.078400
      7 C7           2.6820    -0.9650     0.1100 c3         1 DUV      -0.004300
      8 C8           3.9760    -0.3010    -0.0980 c1         1 DUV      -0.112100
      9 C9           5.0290     0.2710    -0.2670 c1         1 DUV      -0.296000
     10 C10         -1.1850     1.3770     0.7650 c          1 DUV       0.631900
     11 O11         -1.1840     2.5490     0.4020 o          1 DUV      -0.584100
     12 H2          -1.0090     0.6200    -1.2170 hc         1 DUV       0.056700
     13 H3           0.0650    -1.0900     1.1080 hc         1 DUV       0.046700
     14 H4           0.0550    -1.5860    -0.5810 hc         1 DUV       0.046700
     15 H5           1.5330     0.3620    -1.1660 hc         1 DUV       0.040200
     16 H6           1.5660     0.8450     0.5300 hc         1 DUV       0.040200
     17 H7           2.6420    -1.3500     1.1360 hc         1 DUV       0.054200
     18 H8           2.6160    -1.8300    -0.5620 hc         1 DUV       0.054200
     19 H9           5.9550     0.7900    -0.4200 ha         1 DUV       0.243000
     20 H10         -1.2330     1.1140     1.8450 h4         1 DUV      -0.044800
@<TRIPOS>BOND
     1     1     2 1   
     2     2     3 1   
     3     2     4 1   
     4     4     5 1   
     5     4    10 1   
     6     4    12 1   
     7     5     6 1   
     8     5    13 1   
     9     5    14 1   
    10     6     7 1   
    11     6    15 1   
    12     6    16 1   
    13     7     8 1   
    14     7    17 1   
    15     7    18 1   
    16     8     9 3   
    17     9    19 1   
    18    10    11 2   
    19    10    20 1   
@<TRIPOS>SUBSTRUCTURE
     1 DUV         1 TEMP              0 ****  ****    0 ROOT
