@<TRIPOS>MOLECULE
DUV
   20    19     1     0     0
SMALL
abcg2


@<TRIPOS>ATOM
      1 O1          -2.4300    -1.8370    -0.1960 o          1 DUV      -0.719500
      2 C2          -2.4210    -0.6020    -0.0930 c          1 DUV       0.732000
      3 O3          -3.3910     0.1490     0.1370 o          1 DUV      -0.719500
      4 C4          -1.0650     0.1360    -0.2840 c3         1 DUV      -0.333700
      5 C5           0.1400    -0.6780     0.1750 c3         1 DUV      -0.050400
      6 C6           1.4740    -0.0080    -0.1320 c3         1 DUV      -0.078400
      7 C7           2.6550    -0.8990     0.2640 c3         1 DUV      -0.004300
      8 C8           3.9440    -0.2770    -0.0080 c1         1 DUV      -0.112100
      9 C9           5.0000     0.2490    -0.2460 c1         1 DUV      -0.296000
     10 C10         -1.1740     1.4120     0.4890 c          1 DUV       0.631900
     11 O11         -1.2070     2.5270     0.0250 o          1 DUV      -0.584100
     12 H2          -0.9620     0.3810    -1.3490 hc         1 DUV       0.056700
     13 H3           0.0640    -0.8690     1.2510 hc         1 DUV       0.046700
     14 H4           0.0950    -1.6550    -0.3100 hc         1 DUV       0.046700
     15 H5           1.5370     0.2210    -1.1980 hc         1 DUV       0.040200
     16 H6           1.5580     0.9450     0.3980 hc         1 DUV       0.040200
     17 H7           2.5950    -1.1410     1.3290 hc         1 DUV       0.054200
     18 H8           2.5960    -1.8500    -0.2710 hc         1 DUV       0.054200
     19 H9           5.9320     0.7220    -0.4550 ha         1 DUV       0.243000
     20 H10         -1.2050     1.2630     1.5870 h4         1 DUV      -0.044800
@<TRIPOS>BOND
     1     1     2 1   
     2     2     3 1   
     3     2     4 1   
     4     4     5 1   
     5     4    10 1   
     6     4    12 1   
     7     5     6 1   
     8     5    13 1   
     9     5    14 1   
    10     6     7 1   
    11     6    15 1   
    12     6    16 1   
    13     7     8 1   
    14     7    17 1   
    15     7    18 1   
    16     8     9 3   
    17     9    19 1   
    18    10    11 2   
    19    10    20 1   
@<TRIPOS>SUBSTRUCTURE
     1 DUV         1 TEMP              0 ****  ****    0 ROOT
