@<TRIPOS>MOLECULE
DUW
   22    22     1     0     0
SMALL
abcg2


@<TRIPOS>ATOM
      1 O1          -3.0250    -1.6340     0.1430 o          1 DUW      -0.719000
      2 C2          -2.7630    -0.4330    -0.0150 c          1 DUW       0.733000
      3 O3          -3.5610     0.5250    -0.0340 o          1 DUW      -0.719000
      4 C4          -1.2760    -0.0450    -0.2390 c3         1 DUW      -0.329700
      5 C5          -0.3160    -0.8590     0.6360 c3         1 DUW      -0.016100
      6 C6           1.1280    -0.5530     0.3450 ca         1 DUW      -0.055300
      7 C7           1.7860    -1.1860    -0.7090 ca         1 DUW      -0.110500
      8 C8           3.1060    -0.8840    -1.0110 ca         1 DUW      -0.116000
      9 C9           3.7930     0.0650    -0.2640 ca         1 DUW      -0.134000
     10 C10          3.1500     0.7040     0.7870 ca         1 DUW      -0.116000
     11 C11          1.8290     0.3950     1.0870 ca         1 DUW      -0.110500
     12 C12         -1.1570     1.4170     0.0580 c          1 DUW       0.632900
     13 O13         -0.9200     2.2860    -0.7470 o          1 DUW      -0.580100
     14 H2          -1.0330    -0.2120    -1.2950 hc         1 DUW       0.059700
     15 H3          -0.5320    -0.6710     1.6920 hc         1 DUW       0.056700
     16 H4          -0.5190    -1.9160     0.4600 hc         1 DUW       0.056700
     17 H5           1.2580    -1.9300    -1.2960 ha         1 DUW       0.112000
     18 H6           3.6010    -1.3910    -1.8300 ha         1 DUW       0.097000
     19 H7           4.8230     0.3010    -0.4970 ha         1 DUW       0.094000
     20 H8           3.6780     1.4420     1.3780 ha         1 DUW       0.097000
     21 H9           1.3390     0.8950     1.9150 ha         1 DUW       0.112000
     22 H10         -1.2920     1.6690     1.1280 h4         1 DUW      -0.043800
@<TRIPOS>BOND
     1     1     2 1   
     2     2     3 1   
     3     2     4 1   
     4     4     5 1   
     5     4    12 1   
     6     4    14 1   
     7     5     6 1   
     8     5    15 1   
     9     5    16 1   
    10     6     7 ar  
    11     6    11 ar  
    12     7     8 ar  
    13     7    17 1   
    14     8     9 ar  
    15     8    18 1   
    16     9    10 ar  
    17     9    19 1   
    18    10    11 ar  
    19    10    20 1   
    20    11    21 1   
    21    12    13 2   
    22    12    22 1   
@<TRIPOS>SUBSTRUCTURE
     1 DUW         1 TEMP              0 ****  ****    0 ROOT
