@<TRIPOS>MOLECULE
DUW
   22    22     1     0     0
SMALL
No Charge or Current Charge


@<TRIPOS>ATOM
      1 O1          -3.3790    -1.0580    -0.8530 o          1 DUW      -0.719000
      2 C2          -2.7470    -0.4830     0.0180 c          1 DUW       0.733000
      3 O3          -3.2110    -0.1770     1.1040 o          1 DUW      -0.719000
      4 C4          -1.3020    -0.1350    -0.2700 c3         1 DUW      -0.329700
      5 C5          -0.3230    -0.7700     0.7520 c3         1 DUW      -0.016100
      6 C6           1.1360    -0.4840     0.4140 ca         1 DUW      -0.055300
      7 C7           1.7650    -1.1670    -0.6450 ca         1 DUW      -0.110500
      8 C8           3.1090    -0.9030    -0.9610 ca         1 DUW      -0.116000
      9 C9           3.8320     0.0460    -0.2200 ca         1 DUW      -0.134000
     10 C10          3.2110     0.7310     0.8370 ca         1 DUW      -0.116000
     11 C11          1.8670     0.4670     1.1540 ca         1 DUW      -0.110500
     12 C12         -1.2270     1.3770    -0.2650 c          1 DUW       0.632900
     13 O13         -0.9820     2.0380    -1.2690 o          1 DUW      -0.580100
     14 H2          -1.0520    -0.4870    -1.2770 hc         1 DUW       0.059700
     15 H3          -0.5570    -0.4120     1.7630 hc         1 DUW       0.056700
     16 H4          -0.4860    -1.8550     0.7730 hc         1 DUW       0.056700
     17 H5           1.2110    -1.9030    -1.2230 ha         1 DUW       0.112000
     18 H6           3.5890    -1.4340    -1.7800 ha         1 DUW       0.097000
     19 H7           4.8720     0.2510    -0.4650 ha         1 DUW       0.094000
     20 H8           3.7700     1.4670     1.4110 ha         1 DUW       0.097000
     21 H9           1.3950     1.0040     1.9740 ha         1 DUW       0.112000
     22 H10         -1.3920     1.8720     0.7180 h4         1 DUW      -0.043800
@<TRIPOS>BOND
     1     1     2 1   
     2     2     3 1   
     3     2     4 1   
     4     4     5 1   
     5     4    12 1   
     6     4    14 1   
     7     5     6 1   
     8     5    15 1   
     9     5    16 1   
    10     6     7 ar  
    11     6    11 ar  
    12     7     8 ar  
    13     7    17 1   
    14     8     9 ar  
    15     8    18 1   
    16     9    10 ar  
    17     9    19 1   
    18    10    11 ar  
    19    10    20 1   
    20    11    21 1   
    21    12    13 2   
    22    12    22 1   
@<TRIPOS>SUBSTRUCTURE
     1 DUW         1 TEMP              0 ****  ****    0 ROOT
