@<TRIPOS>MOLECULE
DUX
   60    64     1     0     0
SMALL
No Charge or Current Charge


@<TRIPOS>ATOM
      1 F3           3.7310    -1.7710    -2.0830 f          1 DUX      -0.261000
      2 C3           2.9490    -0.6820    -1.6830 c5         1 DUX       0.163300
      3 C2           2.3440     0.0220    -2.9190 c5         1 DUX      -0.155400
      4 C1           1.2190    -0.9870    -3.2220 c5         1 DUX       0.346700
      5 N1           0.2780    -0.3550    -4.1850 n          1 DUX      -0.317000
      6 C7          -0.7180     0.5520    -3.7440 c          1 DUX       0.625000
      7 N3          -1.5730     1.0080    -4.7000 ns         1 DUX      -0.473500
      8 C4          -1.5900     0.7180    -6.0250 c          1 DUX       0.591200
      9 C5          -0.5350    -0.2040    -6.4300 cc         1 DUX      -0.376200
     10 C6           0.3660    -0.7190    -5.5280 cd         1 DUX       0.007600
     11 O4          -2.4120     1.1950    -6.7850 o          1 DUX      -0.524000
     12 O2          -0.8300     0.9570    -2.6000 o          1 DUX      -0.546000
     13 O1           0.6400    -1.3130    -1.9480 os         1 DUX      -0.432000
     14 C8           1.6670    -1.1670    -0.9240 c5         1 DUX       0.144300
     15 C9           1.1770    -0.1610     0.1480 c3         1 DUX       0.147600
     16 O5           0.2440    -0.8420     1.0210 os         1 DUX      -0.441000
     17 C17         -0.2050    -0.1380     2.2100 c3         1 DUX       0.336900
     18 C30          0.9520    -0.0610     3.2400 ca         1 DUX      -0.099633
     19 C31          2.0440    -0.9630     3.1930 ca         1 DUX      -0.090167
     20 C32          3.0670    -0.9080     4.1560 ca         1 DUX      -0.116000
     21 C33          3.0080     0.0320     5.1950 ca         1 DUX      -0.104333
     22 C34          1.9170     0.9090     5.2790 ca         1 DUX      -0.116000
     23 C35          0.8930     0.8560     4.3180 ca         1 DUX      -0.090167
     24 C24         -0.7420     1.2410     1.7320 ca         1 DUX      -0.099633
     25 C25         -2.0330     1.3370     1.1610 ca         1 DUX      -0.090167
     26 C26         -2.5270     2.5670     0.6930 ca         1 DUX      -0.116000
     27 C27         -1.7310     3.7190     0.7670 ca         1 DUX      -0.104333
     28 C28         -0.4350     3.6370     1.2980 ca         1 DUX      -0.116000
     29 C29          0.0600     2.4090     1.7670 ca         1 DUX      -0.090167
     30 C18         -1.3180    -0.9880     2.8700 ca         1 DUX      -0.099633
     31 C19         -1.4350    -2.3770     2.6200 ca         1 DUX      -0.090167
     32 C20         -2.4390    -3.1380     3.2430 ca         1 DUX      -0.116000
     33 C21         -3.3370    -2.5290     4.1320 ca         1 DUX      -0.104333
     34 C22         -3.2260    -1.1570     4.4030 ca         1 DUX      -0.116000
     35 C23         -2.2230    -0.3940     3.7820 ca         1 DUX      -0.090167
     36 H3           3.5810    -0.0160    -1.0790 h1         1 DUX       0.082700
     37 H2'1         1.9590     1.0170    -2.6720 hc         1 DUX       0.089700
     38 H2'2         3.0560     0.1260    -3.7450 hc         1 DUX       0.089700
     39 H1           1.6220    -1.8970    -3.6870 h2         1 DUX       0.064700
     40 H7          -2.2790     1.6510    -4.3820 hn         1 DUX       0.340500
     41 H5          -0.5100    -0.4590    -7.4840 ha         1 DUX       0.224000
     42 H6           1.1690    -1.4130    -5.7750 h4         1 DUX       0.205000
     43 H4           1.8470    -2.1380    -0.4420 h1         1 DUX       0.087700
     44 H5'1         2.0440     0.2020     0.7160 h1         1 DUX       0.049200
     45 H5'2         0.7120     0.6980    -0.3510 h1         1 DUX       0.049200
     46 H31          2.1050    -1.7200     2.4160 ha         1 DUX       0.120833
     47 H32          3.9030    -1.6020     4.1000 ha         1 DUX       0.111667
     48 H33          3.8000     0.0720     5.9410 ha         1 DUX       0.111333
     49 H34          1.8600     1.6290     6.0940 ha         1 DUX       0.111667
     50 H35          0.0510     1.5360     4.4130 ha         1 DUX       0.120833
     51 H25         -2.6590     0.4520     1.0720 ha         1 DUX       0.120833
     52 H26         -3.5250     2.6220     0.2640 ha         1 DUX       0.111667
     53 H27         -2.1120     4.6700     0.4010 ha         1 DUX       0.111333
     54 H28          0.1910     4.5260     1.3390 ha         1 DUX       0.111667
     55 H29          1.0790     2.3720     2.1450 ha         1 DUX       0.120833
     56 H19         -0.7460    -2.8790     1.9450 ha         1 DUX       0.120833
     57 H20         -2.5180    -4.2040     3.0370 ha         1 DUX       0.111667
     58 H21         -4.1140    -3.1200     4.6140 ha         1 DUX       0.111333
     59 H22         -3.9170    -0.6840     5.0970 ha         1 DUX       0.111667
     60 H23         -2.1540     0.6660     4.0110 ha         1 DUX       0.120833
@<TRIPOS>BOND
     1     1     2 1   
     2     2     3 1   
     3     2    14 1   
     4     2    36 1   
     5     3     4 1   
     6     3    37 1   
     7     3    38 1   
     8     4     5 1   
     9     4    13 1   
    10     4    39 1   
    11     5     6 1   
    12     5    10 1   
    13     6     7 1   
    14     6    12 2   
    15     7     8 1   
    16     7    40 1   
    17     8     9 1   
    18     8    11 2   
    19     9    10 2   
    20     9    41 1   
    21    10    42 1   
    22    13    14 1   
    23    14    15 1   
    24    14    43 1   
    25    15    16 1   
    26    15    44 1   
    27    15    45 1   
    28    16    17 1   
    29    17    18 1   
    30    17    24 1   
    31    17    30 1   
    32    18    19 ar  
    33    18    23 ar  
    34    19    20 ar  
    35    19    46 1   
    36    20    21 ar  
    37    20    47 1   
    38    21    22 ar  
    39    21    48 1   
    40    22    23 ar  
    41    22    49 1   
    42    23    50 1   
    43    24    25 ar  
    44    24    29 ar  
    45    25    26 ar  
    46    25    51 1   
    47    26    27 ar  
    48    26    52 1   
    49    27    28 ar  
    50    27    53 1   
    51    28    29 ar  
    52    28    54 1   
    53    29    55 1   
    54    30    31 ar  
    55    30    35 ar  
    56    31    32 ar  
    57    31    56 1   
    58    32    33 ar  
    59    32    57 1   
    60    33    34 ar  
    61    33    58 1   
    62    34    35 ar  
    63    34    59 1   
    64    35    60 1   
@<TRIPOS>SUBSTRUCTURE
     1 DUX         1 TEMP              0 ****  ****    0 ROOT
