@<TRIPOS>MOLECULE
DUX
   60    64     1     0     0
SMALL
abcg2


@<TRIPOS>ATOM
      1 F3           4.2040    -0.7550    -2.0470 f          1 DUX      -0.261000
      2 C3           3.1500     0.0980    -1.7110 c5         1 DUX       0.163300
      3 C2           2.3570     0.4320    -2.9540 c5         1 DUX      -0.155400
      4 C1           1.4420    -0.7840    -3.0670 c5         1 DUX       0.346700
      5 N1           0.1690    -0.5880    -3.7500 n          1 DUX      -0.317000
      6 C7          -0.7430     0.3530    -3.2980 c          1 DUX       0.625000
      7 N3          -1.9240     0.3850    -3.9990 ns         1 DUX      -0.473500
      8 C4          -2.3080    -0.3950    -5.0780 c          1 DUX       0.591200
      9 C5          -1.3030    -1.3500    -5.4740 cc         1 DUX      -0.376200
     10 C6          -0.1430    -1.4050    -4.8010 cd         1 DUX       0.007600
     11 O4          -3.3970    -0.2430    -5.5980 o          1 DUX      -0.524000
     12 O2          -0.5370     1.0970    -2.3680 o          1 DUX      -0.546000
     13 O1           1.2220    -1.2480    -1.7620 os         1 DUX      -0.432000
     14 C8           2.1470    -0.6660    -0.8530 c5         1 DUX       0.144300
     15 C9           1.4570     0.2470     0.1410 c3         1 DUX       0.147600
     16 O5           0.4690    -0.5080     0.8000 os         1 DUX      -0.441000
     17 C17         -0.0790     0.0410     1.9780 c3         1 DUX       0.336900
     18 C30          0.8960    -0.1180     3.1510 ca         1 DUX      -0.099633
     19 C31          1.9470    -1.0280     3.0690 ca         1 DUX      -0.090167
     20 C32          2.7910    -1.2430     4.1510 ca         1 DUX      -0.116000
     21 C33          2.5920    -0.5610     5.3420 ca         1 DUX      -0.104333
     22 C34          1.5370     0.3370     5.4410 ca         1 DUX      -0.116000
     23 C35          0.6990     0.5530     4.3570 ca         1 DUX      -0.090167
     24 C24         -0.4950     1.4860     1.6980 ca         1 DUX      -0.099633
     25 C25         -1.6130     1.7100     0.8960 ca         1 DUX      -0.090167
     26 C26         -1.9750     2.9940     0.5210 ca         1 DUX      -0.116000
     27 C27         -1.2160     4.0820     0.9330 ca         1 DUX      -0.104333
     28 C28         -0.0840     3.8690     1.7060 ca         1 DUX      -0.116000
     29 C29          0.2750     2.5790     2.0790 ca         1 DUX      -0.090167
     30 C18         -1.2860    -0.8320     2.3240 ca         1 DUX      -0.099633
     31 C19         -1.3940    -2.1280     1.8310 ca         1 DUX      -0.090167
     32 C20         -2.4650    -2.9360     2.1980 ca         1 DUX      -0.116000
     33 C21         -3.4390    -2.4630     3.0650 ca         1 DUX      -0.104333
     34 C22         -3.3360    -1.1700     3.5620 ca         1 DUX      -0.116000
     35 C23         -2.2690    -0.3640     3.1940 ca         1 DUX      -0.090167
     36 H3           3.5770     0.9690    -1.2120 h1         1 DUX       0.082700
     37 H2'1         1.8040     1.3540    -2.7970 hc         1 DUX       0.089700
     38 H2'2         2.9860     0.5540    -3.8340 hc         1 DUX       0.089700
     39 H1           1.9490    -1.5560    -3.6540 h2         1 DUX       0.064700
     40 H7          -2.5920     1.0710    -3.6710 hn         1 DUX       0.340500
     41 H5          -1.4880    -2.0180    -6.3000 ha         1 DUX       0.224000
     42 H6           0.6230    -2.1170    -5.0760 h4         1 DUX       0.205000
     43 H4           2.6530    -1.4720    -0.3100 h1         1 DUX       0.087700
     44 H5'1         2.2200     0.6190     0.8380 h1         1 DUX       0.049200
     45 H5'2         1.0160     1.1110    -0.3630 h1         1 DUX       0.049200
     46 H31          2.1120    -1.5890     2.1590 ha         1 DUX       0.120833
     47 H32          3.6030    -1.9520     4.0600 ha         1 DUX       0.111667
     48 H33          3.2470    -0.7300     6.1870 ha         1 DUX       0.111333
     49 H34          1.3640     0.8750     6.3640 ha         1 DUX       0.111667
     50 H35         -0.1140     1.2600     4.4640 ha         1 DUX       0.120833
     51 H25         -2.2070     0.8740     0.5520 ha         1 DUX       0.120833
     52 H26         -2.8490     3.1440    -0.0980 ha         1 DUX       0.111667
     53 H27         -1.5000     5.0860     0.6460 ha         1 DUX       0.111333
     54 H28          0.5270     4.7060     2.0180 ha         1 DUX       0.111667
     55 H29          1.1750     2.4400     2.6640 ha         1 DUX       0.120833
     56 H19         -0.6480    -2.5200     1.1550 ha         1 DUX       0.120833
     57 H20         -2.5340    -3.9400     1.8010 ha         1 DUX       0.111667
     58 H21         -4.2710    -3.0940     3.3500 ha         1 DUX       0.111333
     59 H22         -4.0900    -0.7830     4.2350 ha         1 DUX       0.111667
     60 H23         -2.2160     0.6440     3.5850 ha         1 DUX       0.120833
@<TRIPOS>BOND
     1     1     2 1   
     2     2     3 1   
     3     2    14 1   
     4     2    36 1   
     5     3     4 1   
     6     3    37 1   
     7     3    38 1   
     8     4     5 1   
     9     4    13 1   
    10     4    39 1   
    11     5     6 1   
    12     5    10 1   
    13     6     7 1   
    14     6    12 2   
    15     7     8 1   
    16     7    40 1   
    17     8     9 1   
    18     8    11 2   
    19     9    10 2   
    20     9    41 1   
    21    10    42 1   
    22    13    14 1   
    23    14    15 1   
    24    14    43 1   
    25    15    16 1   
    26    15    44 1   
    27    15    45 1   
    28    16    17 1   
    29    17    18 1   
    30    17    24 1   
    31    17    30 1   
    32    18    19 ar  
    33    18    23 ar  
    34    19    20 ar  
    35    19    46 1   
    36    20    21 ar  
    37    20    47 1   
    38    21    22 ar  
    39    21    48 1   
    40    22    23 ar  
    41    22    49 1   
    42    23    50 1   
    43    24    25 ar  
    44    24    29 ar  
    45    25    26 ar  
    46    25    51 1   
    47    26    27 ar  
    48    26    52 1   
    49    27    28 ar  
    50    27    53 1   
    51    28    29 ar  
    52    28    54 1   
    53    29    55 1   
    54    30    31 ar  
    55    30    35 ar  
    56    31    32 ar  
    57    31    56 1   
    58    32    33 ar  
    59    32    57 1   
    60    33    34 ar  
    61    33    58 1   
    62    34    35 ar  
    63    34    59 1   
    64    35    60 1   
@<TRIPOS>SUBSTRUCTURE
     1 DUX         1 TEMP              0 ****  ****    0 ROOT
