@<TRIPOS>MOLECULE
DUY
   78    81     1     0     0
SMALL
No Charge or Current Charge


@<TRIPOS>ATOM
      1 C1           2.3940     0.5440    -1.0980 c          1 DUY       0.600100
      2 C2           3.4170     1.2680    -0.1430 c5         1 DUY       0.047700
      3 C3           5.3910    -0.3150    -0.4000 c          1 DUY       0.666100
      4 O4          -5.6170     2.5040    -2.3000 o          1 DUY      -0.723500
      5 C5           8.9010    -1.0220    -1.3070 c3         1 DUY      -0.107100
      6 C6           6.9130    -2.4720    -1.9130 c3         1 DUY      -0.107100
      7 O6          -3.2040     0.6640     1.5920 o          1 DUY      -0.614100
      8 C7           7.6180    -2.1610     0.5580 c3         1 DUY      -0.107100
      9 C8           5.6560     2.1980    -0.6660 c5         1 DUY       0.121000
     10 C9           4.7660     3.2830    -0.0120 c5         1 DUY      -0.097400
     11 C10          3.3450     2.8090    -0.4020 c5         1 DUY      -0.087400
     12 C15         -3.8570     2.2980    -0.6880 c3         1 DUY      -0.033300
     13 C16         -3.2990     3.6510    -0.1570 c5         1 DUY      -0.049700
     14 C17         -2.1280     4.2670    -0.9670 c5         1 DUY      -0.078400
     15 C18         -1.9350     5.6320    -0.2490 c5         1 DUY      -0.078900
     16 C19         -3.3700     6.0350     0.2270 c5         1 DUY      -0.078900
     17 C20         -4.2820     4.8480    -0.2020 c5         1 DUY      -0.078400
     18 C21         -4.4100     2.3760    -2.1490 c          1 DUY       0.718000
     19 OH           2.7020    -0.1070    -2.0920 o          1 DUY      -0.612100
     20 N            4.8560     0.9840    -0.4080 n          1 DUY      -0.398800
     21 O            6.7140    -0.3110    -0.7730 os         1 DUY      -0.473100
     22 C            7.5110    -1.5160    -0.8480 c3         1 DUY       0.224000
     23 O3           4.7390    -1.2980    -0.0800 o          1 DUY      -0.548000
     24 N2           1.0280     0.8010    -0.7790 n          1 DUY      -0.400800
     25 CE1         -0.0650     0.3120    -1.6530 c6         1 DUY       0.096500
     26 CD1         -0.8830    -0.8330    -0.9810 c6         1 DUY      -0.072900
     27 CG          -1.3890    -0.5420     0.4880 c6         1 DUY      -0.085700
     28 CB          -2.5370     0.5240     0.5740 c          1 DUY       0.599100
     29 N3          -2.8610     1.2080    -0.5790 ns         1 DUY      -0.450900
     30 O5          -3.6450     2.1410    -3.0770 o          1 DUY      -0.723500
     31 CD2         -1.9570    -1.8600     1.0920 ca         1 DUY      -0.058300
     32 CE2         -1.4610    -2.4330     2.2900 ca         1 DUY      -0.085500
     33 C24         -2.0100    -3.6240     2.7970 ca         1 DUY      -0.085000
     34 C25         -3.0630    -4.2580     2.1220 ca         1 DUY      -0.013900
     35 Br1         -3.8070    -5.8770     2.8160 br         1 DUY      -0.136100
     36 C26         -3.5730    -3.7010     0.9420 ca         1 DUY      -0.085000
     37 C27         -3.0270    -2.5100     0.4330 ca         1 DUY      -0.085500
     38 C28         -0.1440     0.0200     1.2600 c6         1 DUY      -0.072900
     39 C29          0.5180     1.2220     0.5530 c6         1 DUY       0.096500
     40 H1           3.1970     1.0050     0.8980 h1         1 DUY       0.080700
     41 H3           8.8360    -0.5230    -2.2810 hc         1 DUY       0.047033
     42 H4           9.3190    -0.3100    -0.5850 hc         1 DUY       0.047033
     43 H5           9.6020    -1.8610    -1.4010 hc         1 DUY       0.047033
     44 H6           5.9910    -2.9490    -1.5650 hc         1 DUY       0.047033
     45 H7           6.6940    -1.9320    -2.8420 hc         1 DUY       0.047033
     46 H8           7.6230    -3.2740    -2.1480 hc         1 DUY       0.047033
     47 H9           8.3990    -2.9300     0.5660 hc         1 DUY       0.047033
     48 H10          7.8770    -1.4090     1.3130 hc         1 DUY       0.047033
     49 H11          6.6840    -2.6470     0.8600 hc         1 DUY       0.047033
     50 H12          5.7750     2.3620    -1.7460 h1         1 DUY       0.052200
     51 H13          6.6510     2.1590    -0.2030 h1         1 DUY       0.052200
     52 H14          4.8940     3.2930     1.0770 hc         1 DUY       0.050200
     53 H15          4.9950     4.2900    -0.3800 hc         1 DUY       0.050200
     54 H16          3.1460     3.0270    -1.4590 hc         1 DUY       0.062700
     55 H17          2.5630     3.3070     0.1810 hc         1 DUY       0.062700
     56 H18         -4.7110     2.0260    -0.0550 h1         1 DUY       0.059700
     57 H19         -2.9860     3.4650     0.8790 hc         1 DUY       0.010700
     58 H20         -1.2200     3.6540    -0.9370 hc         1 DUY       0.055450
     59 H21         -2.3860     4.4100    -2.0230 hc         1 DUY       0.055450
     60 H22         -1.2590     5.5310     0.6080 hc         1 DUY       0.024700
     61 H23         -1.4940     6.3820    -0.9150 hc         1 DUY       0.024700
     62 H24         -3.3900     6.1740     1.3140 hc         1 DUY       0.024700
     63 H25         -3.7020     6.9790    -0.2200 hc         1 DUY       0.024700
     64 H26         -4.6890     5.0100    -1.2070 hc         1 DUY       0.055450
     65 H27         -5.1350     4.7160     0.4740 hc         1 DUY       0.055450
     66 H28         -0.7100     1.1630    -1.9060 h1         1 DUY       0.057450
     67 H29          0.3330    -0.0540    -2.6100 h1         1 DUY       0.057450
     68 H30         -1.7200    -1.1040    -1.6380 hc         1 DUY       0.053200
     69 H31         -0.2400    -1.7240    -0.9520 hc         1 DUY       0.053200
     70 H32         -2.3470     0.9680    -1.4170 hn         1 DUY       0.296500
     71 H33         -0.6530    -1.9710     2.8490 ha         1 DUY       0.127000
     72 H34         -1.6180    -4.0530     3.7160 ha         1 DUY       0.122000
     73 H35         -4.3950    -4.1870     0.4200 ha         1 DUY       0.122000
     74 H36         -3.4490    -2.0910    -0.4770 ha         1 DUY       0.127000
     75 H37         -0.4360     0.3220     2.2750 hc         1 DUY       0.053200
     76 H38          0.6160    -0.7660     1.3730 hc         1 DUY       0.053200
     77 H39          1.2990     1.6330     1.2010 h1         1 DUY       0.057450
     78 H40         -0.2200     2.0260     0.4200 h1         1 DUY       0.057450
@<TRIPOS>BOND
     1     1     2 1   
     2     1    19 2   
     3     1    24 1   
     4     2    11 1   
     5     2    20 1   
     6     2    40 1   
     7     3    20 1   
     8     3    21 1   
     9     3    23 2   
    10     4    18 1   
    11     5    22 1   
    12     5    41 1   
    13     5    42 1   
    14     5    43 1   
    15     6    22 1   
    16     6    44 1   
    17     6    45 1   
    18     6    46 1   
    19     7    28 2   
    20     8    22 1   
    21     8    47 1   
    22     8    48 1   
    23     8    49 1   
    24     9    10 1   
    25     9    20 1   
    26     9    50 1   
    27     9    51 1   
    28    10    11 1   
    29    10    52 1   
    30    10    53 1   
    31    11    54 1   
    32    11    55 1   
    33    12    13 1   
    34    12    18 1   
    35    12    29 1   
    36    12    56 1   
    37    13    14 1   
    38    13    17 1   
    39    13    57 1   
    40    14    15 1   
    41    14    58 1   
    42    14    59 1   
    43    15    16 1   
    44    15    60 1   
    45    15    61 1   
    46    16    17 1   
    47    16    62 1   
    48    16    63 1   
    49    17    64 1   
    50    17    65 1   
    51    18    30 1   
    52    21    22 1   
    53    24    25 1   
    54    24    39 1   
    55    25    26 1   
    56    25    66 1   
    57    25    67 1   
    58    26    27 1   
    59    26    68 1   
    60    26    69 1   
    61    27    28 1   
    62    27    31 1   
    63    27    38 1   
    64    28    29 1   
    65    29    70 1   
    66    31    32 ar  
    67    31    37 ar  
    68    32    33 ar  
    69    32    71 1   
    70    33    34 ar  
    71    33    72 1   
    72    34    35 1   
    73    34    36 ar  
    74    36    37 ar  
    75    36    73 1   
    76    37    74 1   
    77    38    39 1   
    78    38    75 1   
    79    38    76 1   
    80    39    77 1   
    81    39    78 1   
@<TRIPOS>SUBSTRUCTURE
     1 DUY         1 TEMP              0 ****  ****    0 ROOT
