@<TRIPOS>MOLECULE
DUY
   78    81     1     0     0
SMALL
bcc


@<TRIPOS>ATOM
      1 C1           3.3400     1.1130    -0.0250 c          1 DUY       0.667100
      2 C2           4.2820     0.8150     1.1420 c5         1 DUY       0.047700
      3 C3           5.8630    -0.5320    -0.0900 c          1 DUY       0.782100
      4 O4          -4.7720     3.5020     1.9840 o          1 DUY      -0.828800
      5 C5           9.1530    -1.2620    -1.4080 c3         1 DUY      -0.107100
      6 C6           7.0440    -1.9870    -2.5180 c3         1 DUY      -0.107100
      7 O6          -1.4450     1.9580     1.8710 o          1 DUY      -0.614100
      8 C7           7.6810    -2.9130    -0.2550 c3         1 DUY      -0.107100
      9 C8           6.5770     1.5700     1.0750 c5         1 DUY       0.121000
     10 C9           5.9330     2.1270     2.3360 c5         1 DUY      -0.097400
     11 C10          4.4410     2.0720     2.0230 c5         1 DUY      -0.087400
     12 C15         -3.2970     3.0800     0.1650 c3         1 DUY      -0.033300
     13 C16         -3.9410     3.5890    -1.1300 c5         1 DUY      -0.049700
     14 C17         -4.8820     2.6230    -1.8580 c5         1 DUY      -0.078400
     15 C18         -5.5810     3.5320    -2.8630 c5         1 DUY      -0.078900
     16 C19         -5.8600     4.8160    -2.0700 c5         1 DUY      -0.078900
     17 C20         -4.7770     4.8710    -0.9700 c5         1 DUY      -0.078400
     18 C21         -4.3370     2.6150     1.2180 c          1 DUY       0.928600
     19 OH           3.8040     1.4420    -1.1070 o          1 DUY      -0.612100
     20 N            5.6210     0.5540     0.6690 n          1 DUY      -0.465800
     21 O            7.1190    -0.5460    -0.5290 os         1 DUY      -0.449900
     22 C            7.7110    -1.7000    -1.1780 c3         1 DUY       0.200800
     23 O3           5.0190    -1.3780    -0.3210 o          1 DUY      -0.597000
     24 N2           2.0140     1.0640     0.2160 n          1 DUY      -0.467800
     25 CE1          1.0720     1.4920    -0.8040 c6         1 DUY       0.096500
     26 CD1         -0.0320     0.4620    -0.9880 c6         1 DUY      -0.072900
     27 CG          -0.8040     0.2110     0.3140 c6         1 DUY      -0.085700
     28 CB          -1.5670     1.4780     0.7520 c          1 DUY       0.666100
     29 N3          -2.3680     2.0200    -0.1730 ns         1 DUY      -0.517900
     30 O5          -4.6620     1.4170     1.1980 o          1 DUY      -0.828800
     31 CD2         -1.8350    -0.9030     0.1880 ca         1 DUY      -0.058300
     32 CE2         -2.6520    -1.1980     1.2800 ca         1 DUY      -0.103500
     33 C24         -3.5860    -2.2180     1.2320 ca         1 DUY      -0.103000
     34 C25         -3.7170    -2.9590     0.0660 ca         1 DUY      -0.013900
     35 BR1         -4.9890    -4.3550    -0.0120 br         1 DUY      -0.136100
     36 C26         -2.9320    -2.6850    -1.0390 ca         1 DUY      -0.103000
     37 C27         -1.9970    -1.6590    -0.9680 ca         1 DUY      -0.103500
     38 C28          0.2340    -0.1850     1.3750 c6         1 DUY      -0.072900
     39 C29          1.3950     0.7950     1.5050 c6         1 DUY       0.096500
     40 H1           3.9310    -0.0380     1.7260 h1         1 DUY       0.080700
     41 H3           9.2030    -0.3870    -2.0580 hc         1 DUY       0.047033
     42 H4           9.6490    -1.0210    -0.4660 hc         1 DUY       0.047033
     43 H5           9.7130    -2.0650    -1.8850 hc         1 DUY       0.047033
     44 H6           6.0220    -2.3420    -2.4080 hc         1 DUY       0.047033
     45 H7           7.0400    -1.0960    -3.1480 hc         1 DUY       0.047033
     46 H8           7.6130    -2.7570    -3.0420 hc         1 DUY       0.047033
     47 H9           8.2680    -3.7180    -0.6990 hc         1 DUY       0.047033
     48 H10          8.1260    -2.6750     0.7130 hc         1 DUY       0.047033
     49 H11          6.6730    -3.2880    -0.0940 hc         1 DUY       0.047033
     50 H12          6.6850     2.3440     0.3080 h1         1 DUY       0.052200
     51 H13          7.5590     1.1410     1.2620 h1         1 DUY       0.052200
     52 H14          6.1710     1.4870     3.1870 hc         1 DUY       0.050200
     53 H15          6.2740     3.1350     2.5680 hc         1 DUY       0.050200
     54 H16          4.1450     2.9660     1.4700 hc         1 DUY       0.062700
     55 H17          3.8150     2.0240     2.9120 hc         1 DUY       0.062700
     56 H18         -2.7220     3.9070     0.5910 h1         1 DUY       0.059700
     57 H19         -3.1170     3.8120    -1.8200 hc         1 DUY       0.010700
     58 H20         -4.3630     1.7910    -2.3400 hc         1 DUY       0.055450
     59 H21         -5.6050     2.1910    -1.1620 hc         1 DUY       0.055450
     60 H22         -4.9050     3.7410    -3.6970 hc         1 DUY       0.024700
     61 H23         -6.4840     3.0890    -3.2850 hc         1 DUY       0.024700
     62 H24         -5.8510     5.7000    -2.7090 hc         1 DUY       0.024700
     63 H25         -6.8530     4.7690    -1.6190 hc         1 DUY       0.024700
     64 H26         -5.2330     4.9050     0.0190 hc         1 DUY       0.055450
     65 H27         -4.1460     5.7580    -1.0530 hc         1 DUY       0.055450
     66 H28          0.6510     2.4650    -0.5260 h1         1 DUY       0.057450
     67 H29          1.6020     1.6300    -1.7420 h1         1 DUY       0.057450
     68 H30         -0.6830     0.7870    -1.8020 hc         1 DUY       0.053200
     69 H31          0.4290    -0.4730    -1.3160 hc         1 DUY       0.053200
     70 H32         -2.5670     1.4770    -0.9980 hn         1 DUY       0.296500
     71 H33         -2.5750    -0.6190     2.1910 ha         1 DUY       0.145000
     72 H34         -4.2040    -2.4220     2.0960 ha         1 DUY       0.140000
     73 H35         -3.0300    -3.2560    -1.9530 ha         1 DUY       0.140000
     74 H36         -1.3940    -1.4680    -1.8450 ha         1 DUY       0.145000
     75 H37         -0.2300    -0.2980     2.3550 hc         1 DUY       0.053200
     76 H38          0.6320    -1.1650     1.0990 hc         1 DUY       0.053200
     77 H39          2.1160     0.3650     2.1940 h1         1 DUY       0.057450
     78 H40          1.0550     1.7340     1.9480 h1         1 DUY       0.057450
@<TRIPOS>BOND
     1     1     2 1   
     2     1    19 2   
     3     1    24 1   
     4     2    11 1   
     5     2    20 1   
     6     2    40 1   
     7     3    20 1   
     8     3    21 1   
     9     3    23 2   
    10     4    18 1   
    11     5    22 1   
    12     5    41 1   
    13     5    42 1   
    14     5    43 1   
    15     6    22 1   
    16     6    44 1   
    17     6    45 1   
    18     6    46 1   
    19     7    28 2   
    20     8    22 1   
    21     8    47 1   
    22     8    48 1   
    23     8    49 1   
    24     9    10 1   
    25     9    20 1   
    26     9    50 1   
    27     9    51 1   
    28    10    11 1   
    29    10    52 1   
    30    10    53 1   
    31    11    54 1   
    32    11    55 1   
    33    12    13 1   
    34    12    18 1   
    35    12    29 1   
    36    12    56 1   
    37    13    14 1   
    38    13    17 1   
    39    13    57 1   
    40    14    15 1   
    41    14    58 1   
    42    14    59 1   
    43    15    16 1   
    44    15    60 1   
    45    15    61 1   
    46    16    17 1   
    47    16    62 1   
    48    16    63 1   
    49    17    64 1   
    50    17    65 1   
    51    18    30 1   
    52    21    22 1   
    53    24    25 1   
    54    24    39 1   
    55    25    26 1   
    56    25    66 1   
    57    25    67 1   
    58    26    27 1   
    59    26    68 1   
    60    26    69 1   
    61    27    28 1   
    62    27    31 1   
    63    27    38 1   
    64    28    29 1   
    65    29    70 1   
    66    31    32 ar  
    67    31    37 ar  
    68    32    33 ar  
    69    32    71 1   
    70    33    34 ar  
    71    33    72 1   
    72    34    35 1   
    73    34    36 ar  
    74    36    37 ar  
    75    36    73 1   
    76    37    74 1   
    77    38    39 1   
    78    38    75 1   
    79    38    76 1   
    80    39    77 1   
    81    39    78 1   
@<TRIPOS>SUBSTRUCTURE
     1 DUY         1 TEMP              0 ****  ****    0 ROOT
