@<TRIPOS>MOLECULE
DV0
   98    99     1     0     0
SMALL
abcg2


@<TRIPOS>ATOM
      1 C10          6.9500   -13.4070     5.5640 c3         1 DV0       0.157500
      2 C15          5.7440   -13.8560     6.3980 c3         1 DV0      -0.076400
      3 C17          3.4300   -14.7730     6.5950 c3         1 DV0      -0.097400
      4 C20          1.6150   -14.7650     3.6650 c          1 DV0       0.582100
      5 C22          0.7980   -13.7390     2.8750 c3         1 DV0       0.030700
      6 C26         -2.6510   -11.7630     0.7200 c3         1 DV0       0.150800
      7 C01          9.7970   -11.2170     0.8130 ca         1 DV0      -0.106000
      8 C02          9.4370   -12.4460     1.3520 ca         1 DV0      -0.092300
      9 C03         10.4980   -13.3860     1.8720 c3         1 DV0       0.143300
     10 C05         10.1370   -15.3410     3.2970 c          1 DV0       0.588100
     11 C06          9.7120   -15.8440     4.6830 c3         1 DV0       0.036700
     12 C07         10.9550   -16.1150     5.5220 c3         1 DV0      -0.100100
     13 C09          7.6460   -14.5810     4.8890 c          1 DV0       0.597100
     14 C16          4.5980   -14.5210     5.6480 c3         1 DV0      -0.069400
     15 C18          2.2330   -15.4620     5.9540 c3         1 DV0       0.102000
     16 C23          0.0560   -14.3970     1.7180 c3         1 DV0      -0.081400
     17 C25         -1.7620   -12.5890     1.6370 c3         1 DV0      -0.086400
     18 C29          1.7970   -11.4940     2.9750 c          1 DV0       0.592100
     19 C31          2.7290   -10.5030     2.2770 c3         1 DV0       0.031700
     20 C32          1.9050    -9.4790     1.4930 c3         1 DV0      -0.085400
     21 C33          2.7250    -8.2640     1.0750 c3         1 DV0      -0.076400
     22 C34          1.9140    -7.2620     0.2660 c3         1 DV0      -0.079400
     23 C35          2.7090    -6.0110    -0.0750 c3         1 DV0       0.149800
     24 C38          4.8390   -11.6840     1.8670 c          1 DV0       0.607100
     25 C40          5.6740   -12.3880     0.8150 c3         1 DV0      -0.111100
     26 C41          7.1180   -11.9720     0.8360 ca         1 DV0      -0.078300
     27 C42          8.0920   -12.8050     1.3680 ca         1 DV0      -0.065000
     28 C43          7.4970   -10.7440     0.2950 ca         1 DV0      -0.109000
     29 C44          8.8300   -10.3680     0.2880 ca         1 DV0      -0.116000
     30 N04         10.1140   -14.0200     3.1100 ns         1 DV0      -0.507900
     31 N08          8.8450   -14.9320     5.3840 ns         1 DV0      -0.495900
     32 N11          7.8270   -12.6540     6.4370 nu         1 DV0      -0.931400
     33 N13          9.1900   -11.8590     4.7690 n2         1 DV0      -0.921100
     34 N14          9.0940   -10.7870     6.8780 nv         1 DV0      -1.077200
     35 N19          1.5360   -14.6310     4.9950 ns         1 DV0      -0.497900
     36 N27         -3.5720   -10.9390     1.4890 n8         1 DV0      -0.993200
     37 N28          1.6890   -12.7010     2.4020 ns         1 DV0      -0.490900
     38 N36          1.9060    -5.0800    -0.8550 n8         1 DV0      -0.994200
     39 N37          3.6910   -11.1370     1.4090 ns         1 DV0      -0.528900
     40 O21          2.2830   -15.6180     3.0980 o          1 DV0      -0.600100
     41 O30          1.1650   -11.1490     3.9630 o          1 DV0      -0.611100
     42 O39          5.1570   -11.6420     3.0420 o          1 DV0      -0.590100
     43 O45          7.1380   -15.1590     3.9390 o          1 DV0      -0.600100
     44 O46         10.5300   -16.1560     2.4670 o          1 DV0      -0.627100
     45 H1           6.6020   -12.7780     4.7370 h1         1 DV0       0.113700
     46 H2           6.0920   -14.5140     7.2020 hc         1 DV0       0.037200
     47 H3           5.3520   -12.9580     6.8880 hc         1 DV0       0.037200
     48 H4           3.7680   -15.4000     7.4260 hc         1 DV0       0.039200
     49 H5           3.1020   -13.8300     7.0450 hc         1 DV0       0.039200
     50 H6           0.0740   -13.2630     3.5360 h1         1 DV0       0.083700
     51 H7          -1.2650   -14.0020     0.0950 hc         1 DV0       0.037700
     52 H8          -0.0670   -12.7540     0.3230 hc         1 DV0       0.037700
     53 H9          -3.1530   -12.4390     0.0110 h1         1 DV0       0.023700
     54 H10         -2.0220   -11.1020     0.1170 h1         1 DV0       0.023700
     55 H11         10.8390   -10.9190     0.8010 ha         1 DV0       0.108000
     56 H12         10.7000   -14.1600     1.1310 h1         1 DV0       0.057700
     57 H13         11.4320   -12.8330     2.0050 h1         1 DV0       0.057700
     58 H14          9.1890   -16.7880     4.5120 h1         1 DV0       0.094700
     59 H15         10.6790   -16.5520     6.4820 hc         1 DV0       0.047033
     60 H16         11.6160   -16.8140     5.0120 hc         1 DV0       0.047033
     61 H17         11.5120   -15.1950     5.7100 hc         1 DV0       0.047033
     62 H18          4.2870   -13.8860     4.8140 hc         1 DV0       0.068700
     63 H19          4.9170   -15.4670     5.2110 hc         1 DV0       0.068700
     64 H20          1.5200   -15.7460     6.7300 h1         1 DV0       0.056700
     65 H21          2.5430   -16.3770     5.4510 h1         1 DV0       0.056700
     66 H22         -0.6140   -15.1510     2.1410 hc         1 DV0       0.060700
     67 H23          0.7660   -14.9370     1.0870 hc         1 DV0       0.060700
     68 H24         -1.2570   -11.9080     2.3290 hc         1 DV0       0.051200
     69 H25         -2.3860   -13.2480     2.2510 hc         1 DV0       0.051200
     70 H26          3.2640    -9.9810     3.0740 h1         1 DV0       0.101700
     71 H27          1.0720    -9.1520     2.1190 hc         1 DV0       0.059200
     72 H28          1.4610    -9.9610     0.6150 hc         1 DV0       0.059200
     73 H29          3.5990    -8.5770     0.4960 hc         1 DV0       0.042200
     74 H30          3.1160    -7.7790     1.9760 hc         1 DV0       0.042200
     75 H31          1.0150    -6.9750     0.8200 hc         1 DV0       0.048200
     76 H32          1.5690    -7.7370    -0.6600 hc         1 DV0       0.048200
     77 H33          3.6430    -6.3090    -0.5740 h1         1 DV0       0.026700
     78 H34          3.0050    -5.5150     0.8530 h1         1 DV0       0.026700
     79 H35          5.2570   -12.2270    -0.1820 hc         1 DV0       0.071200
     80 H36          5.5900   -13.4590     1.0180 hc         1 DV0       0.071200
     81 H37          7.7950   -13.7490     1.8080 ha         1 DV0       0.142000
     82 H38          6.7470   -10.0840    -0.1260 ha         1 DV0       0.102000
     83 H39          9.1210    -9.4120    -0.1290 ha         1 DV0       0.108000
     84 H40          9.7350   -13.3790     3.8230 hn         1 DV0       0.367500
     85 H41          9.2200   -14.3800     6.1410 hn         1 DV0       0.327500
     86 H42          7.4960   -12.5110     7.3780 hn         1 DV0       0.483000
     87 H43          9.7930   -11.0830     4.5240 hn         1 DV0       0.390400
     88 H44          8.3900   -10.4740     7.5280 hn         1 DV0       0.461500
     89 H45          9.6590   -10.0310     6.5260 hn         1 DV0       0.461500
     90 H46          0.9930   -13.8670     5.3640 hn         1 DV0       0.320500
     91 H47         -4.1430   -10.3910     0.8580 hn         1 DV0       0.392000
     92 H48         -4.2200   -11.5390     1.9850 hn         1 DV0       0.392000
     93 H50          2.2820   -12.9120     1.6150 hn         1 DV0       0.326500
     94 H51          2.4420    -4.2410    -1.0360 hn         1 DV0       0.392000
     95 H52          1.7220    -5.4840    -1.7650 hn         1 DV0       0.392000
     96 H54          3.5060   -11.1490     0.4180 hn         1 DV0       0.316500
     97 C24         -0.7470   -13.4210     0.8630 c3         1 DV0      -0.071400
     98 C12          8.7220   -11.7350     5.9580 c2         1 DV0       0.819100
@<TRIPOS>BOND
     1     1     2 1   
     2     1    13 1   
     3     1    32 1   
     4     1    45 1   
     5     2    14 1   
     6     2    46 1   
     7     2    47 1   
     8     3    14 1   
     9     3    15 1   
    10     3    48 1   
    11     3    49 1   
    12     4     5 1   
    13     4    35 1   
    14     4    40 2   
    15     5    16 1   
    16     5    37 1   
    17     5    50 1   
    18     6    17 1   
    19     6    36 1   
    20     6    53 1   
    21     6    54 1   
    22     7     8 ar  
    23     7    29 ar  
    24     7    55 1   
    25     8     9 1   
    26     8    27 ar  
    27     9    30 1   
    28     9    56 1   
    29     9    57 1   
    30    10    11 1   
    31    10    30 1   
    32    10    44 2   
    33    11    12 1   
    34    11    31 1   
    35    11    58 1   
    36    12    59 1   
    37    12    60 1   
    38    12    61 1   
    39    13    31 1   
    40    13    43 2   
    41    14    62 1   
    42    14    63 1   
    43    15    35 1   
    44    15    64 1   
    45    15    65 1   
    46    16    66 1   
    47    16    67 1   
    48    16    97 1   
    49    17    68 1   
    50    17    69 1   
    51    17    97 1   
    52    18    19 1   
    53    18    37 1   
    54    18    41 2   
    55    19    20 1   
    56    19    39 1   
    57    19    70 1   
    58    20    21 1   
    59    20    71 1   
    60    20    72 1   
    61    21    22 1   
    62    21    73 1   
    63    21    74 1   
    64    22    23 1   
    65    22    75 1   
    66    22    76 1   
    67    23    38 1   
    68    23    77 1   
    69    23    78 1   
    70    24    25 1   
    71    24    39 1   
    72    24    42 2   
    73    25    26 1   
    74    25    79 1   
    75    25    80 1   
    76    26    27 ar  
    77    26    28 ar  
    78    27    81 1   
    79    28    29 ar  
    80    28    82 1   
    81    29    83 1   
    82    30    84 1   
    83    31    85 1   
    84    32    86 1   
    85    32    98 1   
    86    33    87 1   
    87    33    98 2   
    88    34    88 1   
    89    34    89 1   
    90    34    98 1   
    91    35    90 1   
    92    36    91 1   
    93    36    92 1   
    94    37    93 1   
    95    38    94 1   
    96    38    95 1   
    97    39    96 1   
    98    51    97 1   
    99    52    97 1   
@<TRIPOS>SUBSTRUCTURE
     1 DV0         1 TEMP              0 ****  ****    0 ROOT
