@<TRIPOS>MOLECULE
DV0
   98    99     1     0     0
SMALL
No Charge or Current Charge


@<TRIPOS>ATOM
      1 C10          6.7700   -13.7740     5.4680 c3         1 DV0       0.157500
      2 C15          5.6170   -14.5280     6.1850 c3         1 DV0      -0.076400
      3 C17          3.3910   -15.8280     5.9650 c3         1 DV0      -0.097400
      4 C20          1.7540   -14.7110     3.2220 c          1 DV0       0.582100
      5 C22          0.8270   -13.5180     2.8630 c3         1 DV0       0.030700
      6 C26         -3.3590   -11.4530     2.5790 c3         1 DV0       0.150800
      7 C01          9.6800   -10.4350     1.4430 ca         1 DV0      -0.106000
      8 C02          9.5790   -11.8040     1.7580 ca         1 DV0      -0.092300
      9 C03         10.8020   -12.5720     2.2470 c3         1 DV0       0.143300
     10 C05         10.7880   -14.7900     3.4560 c          1 DV0       0.588100
     11 C06         10.1260   -15.5830     4.6240 c3         1 DV0       0.036700
     12 C07         11.1530   -15.9680     5.7080 c3         1 DV0      -0.100100
     13 C09          7.7310   -14.7530     4.6990 c          1 DV0       0.597100
     14 C16          4.5200   -15.0620     5.2330 c3         1 DV0      -0.069400
     15 C18          2.2890   -16.3860     5.0340 c3         1 DV0       0.102000
     16 C23         -0.3630   -13.9870     1.9830 c3         1 DV0      -0.081400
     17 C25         -2.2660   -12.4850     2.9240 c3         1 DV0      -0.086400
     18 C29          1.6030   -11.1340     2.4300 c          1 DV0       0.592100
     19 C31          2.7080   -10.2860     1.7300 c3         1 DV0       0.031700
     20 C32          2.1080    -9.3330     0.6670 c3         1 DV0      -0.085400
     21 C33          3.1350    -8.3450     0.0620 c3         1 DV0      -0.076400
     22 C34          2.5060    -7.3680    -0.9570 c3         1 DV0      -0.079400
     23 C35          3.5320    -6.3860    -1.5570 c3         1 DV0       0.149800
     24 C38          4.7730   -11.7390     1.8810 c          1 DV0       0.607100
     25 C40          5.8510   -12.4570     1.0640 c3         1 DV0      -0.111100
     26 C41          7.1980   -11.7480     1.1780 ca         1 DV0      -0.078300
     27 C42          8.3360   -12.4550     1.6120 ca         1 DV0      -0.065000
     28 C43          7.3150   -10.3810     0.8600 ca         1 DV0      -0.109000
     29 C44          8.5520    -9.7280     0.9910 ca         1 DV0      -0.116000
     30 N04         10.4680   -13.4510     3.3680 ns         1 DV0      -0.507900
     31 N08          9.0020   -14.8380     5.2240 ns         1 DV0      -0.495900
     32 N11          7.4790   -12.9160     6.4710 nu         1 DV0      -0.931400
     33 N13          9.1670   -11.8880     5.5370 n2         1 DV0      -0.921100
     34 N14          7.9800   -11.1800     7.2720 nv         1 DV0      -1.077200
     35 N19          1.4750   -15.3290     4.4240 ns         1 DV0      -0.497900
     36 N27         -4.1500   -11.0850     3.7670 n8         1 DV0      -0.993200
     37 N28          1.6330   -12.4890     2.1730 ns         1 DV0      -0.490900
     38 N36          2.9020    -5.4650    -2.5200 n8         1 DV0      -0.994200
     39 N37          3.7820   -11.1270     1.1430 ns         1 DV0      -0.528900
     40 O21          2.6810   -15.0680     2.5050 o          1 DV0      -0.600100
     41 O30          0.7930   -10.6410     3.2040 o          1 DV0      -0.611100
     42 O39          4.7720   -11.7190     3.1030 o          1 DV0      -0.590100
     43 O45          7.4150   -15.3680     3.6890 o          1 DV0      -0.600100
     44 O46         11.5070   -15.3330     2.6260 o          1 DV0      -0.627100
     45 H1           6.3260   -13.1280     4.6980 h1         1 DV0       0.113700
     46 H2           6.0360   -15.3560     6.7720 hc         1 DV0       0.037200
     47 H3           5.1340   -13.8490     6.8990 hc         1 DV0       0.037200
     48 H4           3.8360   -16.6690     6.5110 hc         1 DV0       0.039200
     49 H5           2.9300   -15.1740     6.7160 hc         1 DV0       0.039200
     50 H6           0.4480   -13.1070     3.8080 h1         1 DV0       0.083700
     51 H7          -2.1290   -13.3200     0.9350 hc         1 DV0       0.037700
     52 H8          -0.9720   -12.0340     1.2320 hc         1 DV0       0.037700
     53 H9          -4.0380   -11.8700     1.8220 h1         1 DV0       0.023700
     54 H10         -2.8960   -10.5450     2.1700 h1         1 DV0       0.023700
     55 H11         10.6310    -9.9180     1.5450 ha         1 DV0       0.108000
     56 H12         11.2090   -13.1590     1.4140 h1         1 DV0       0.057700
     57 H13         11.5790   -11.8700     2.5770 h1         1 DV0       0.057700
     58 H14          9.7300   -16.5070     4.1810 h1         1 DV0       0.094700
     59 H15         10.6760   -16.5620     6.4970 hc         1 DV0       0.047033
     60 H16         11.9650   -16.5650     5.2760 hc         1 DV0       0.047033
     61 H17         11.5900   -15.0720     6.1650 hc         1 DV0       0.047033
     62 H18          4.0920   -14.2100     4.6900 hc         1 DV0       0.068700
     63 H19          4.9640   -15.7280     4.4840 hc         1 DV0       0.068700
     64 H20          1.6210   -17.0320     5.6210 h1         1 DV0       0.056700
     65 H21          2.7410   -17.0060     4.2480 h1         1 DV0       0.056700
     66 H22         -0.8470   -14.8450     2.4660 hc         1 DV0       0.060700
     67 H23          0.0330   -14.3590     1.0290 hc         1 DV0       0.060700
     68 H24         -1.6000   -12.0550     3.6810 hc         1 DV0       0.051200
     69 H25         -2.7320   -13.3720     3.3690 hc         1 DV0       0.051200
     70 H26          3.1540    -9.6730     2.5240 h1         1 DV0       0.101700
     71 H27          1.2970    -8.7560     1.1300 hc         1 DV0       0.059200
     72 H28          1.6530    -9.9270    -0.1350 hc         1 DV0       0.059200
     73 H29          3.9380    -8.9040    -0.4340 hc         1 DV0       0.042200
     74 H30          3.6010    -7.7690     0.8720 hc         1 DV0       0.042200
     75 H31          1.7080    -6.7990    -0.4630 hc         1 DV0       0.048200
     76 H32          2.0390    -7.9440    -1.7650 hc         1 DV0       0.048200
     77 H33          4.3250    -6.9460    -2.0710 h1         1 DV0       0.026700
     78 H34          3.9910    -5.7930    -0.7530 h1         1 DV0       0.026700
     79 H35          5.5530   -12.5030     0.0100 hc         1 DV0       0.071200
     80 H36          5.9320   -13.4800     1.4490 hc         1 DV0       0.071200
     81 H37          8.2540   -13.5140     1.8420 ha         1 DV0       0.142000
     82 H38          6.4490    -9.8200     0.5150 ha         1 DV0       0.102000
     83 H39          8.6370    -8.6720     0.7470 ha         1 DV0       0.108000
     84 H40          9.8980   -13.0660     4.1230 hn         1 DV0       0.367500
     85 H41          9.1690   -14.1970     5.9960 hn         1 DV0       0.327500
     86 H42          6.9810   -12.7250     7.3280 hn         1 DV0       0.483000
     87 H43          9.6880   -11.0290     5.7400 hn         1 DV0       0.390400
     88 H44          7.8140   -10.1950     7.1170 hn         1 DV0       0.461500
     89 H45          8.8040   -11.3350     7.8350 hn         1 DV0       0.461500
     90 H46          0.6850   -14.9720     4.9490 hn         1 DV0       0.320500
     91 H47         -4.9020   -10.4450     3.4820 hn         1 DV0       0.392000
     92 H48         -4.6550   -11.9140     4.1020 hn         1 DV0       0.392000
     93 H50          2.3650   -12.8020     1.5460 hn         1 DV0       0.326500
     94 H51          3.6280    -4.8720    -2.9400 hn         1 DV0       0.392000
     95 H52          2.5460    -6.0080    -3.3160 hn         1 DV0       0.392000
     96 H54          3.8610   -11.1830     0.1330 hn         1 DV0       0.316500
     97 C24         -1.4410   -12.9150     1.6870 c3         1 DV0      -0.071400
     98 C12          8.0920   -11.8110     6.1460 c2         1 DV0       0.819100
@<TRIPOS>BOND
     1     1     2 1   
     2     1    13 1   
     3     1    32 1   
     4     1    45 1   
     5     2    14 1   
     6     2    46 1   
     7     2    47 1   
     8     3    14 1   
     9     3    15 1   
    10     3    48 1   
    11     3    49 1   
    12     4     5 1   
    13     4    35 1   
    14     4    40 2   
    15     5    16 1   
    16     5    37 1   
    17     5    50 1   
    18     6    17 1   
    19     6    36 1   
    20     6    53 1   
    21     6    54 1   
    22     7     8 ar  
    23     7    29 ar  
    24     7    55 1   
    25     8     9 1   
    26     8    27 ar  
    27     9    30 1   
    28     9    56 1   
    29     9    57 1   
    30    10    11 1   
    31    10    30 1   
    32    10    44 2   
    33    11    12 1   
    34    11    31 1   
    35    11    58 1   
    36    12    59 1   
    37    12    60 1   
    38    12    61 1   
    39    13    31 1   
    40    13    43 2   
    41    14    62 1   
    42    14    63 1   
    43    15    35 1   
    44    15    64 1   
    45    15    65 1   
    46    16    66 1   
    47    16    67 1   
    48    16    97 1   
    49    17    68 1   
    50    17    69 1   
    51    17    97 1   
    52    18    19 1   
    53    18    37 1   
    54    18    41 2   
    55    19    20 1   
    56    19    39 1   
    57    19    70 1   
    58    20    21 1   
    59    20    71 1   
    60    20    72 1   
    61    21    22 1   
    62    21    73 1   
    63    21    74 1   
    64    22    23 1   
    65    22    75 1   
    66    22    76 1   
    67    23    38 1   
    68    23    77 1   
    69    23    78 1   
    70    24    25 1   
    71    24    39 1   
    72    24    42 2   
    73    25    26 1   
    74    25    79 1   
    75    25    80 1   
    76    26    27 ar  
    77    26    28 ar  
    78    27    81 1   
    79    28    29 ar  
    80    28    82 1   
    81    29    83 1   
    82    30    84 1   
    83    31    85 1   
    84    32    86 1   
    85    32    98 1   
    86    33    87 1   
    87    33    98 2   
    88    34    88 1   
    89    34    89 1   
    90    34    98 1   
    91    35    90 1   
    92    36    91 1   
    93    36    92 1   
    94    37    93 1   
    95    38    94 1   
    96    38    95 1   
    97    39    96 1   
    98    51    97 1   
    99    52    97 1   
@<TRIPOS>SUBSTRUCTURE
     1 DV0         1 TEMP              0 ****  ****    0 ROOT
