@<TRIPOS>MOLECULE
DV1
   33    34     1     0     0
SMALL
No Charge or Current Charge


@<TRIPOS>ATOM
      1 O1           0.9230     2.7850    -0.6770 oh         1 DV1      -0.637000
      2 C1           0.9340     1.3720    -0.4110 c6         1 DV1       0.171300
      3 C2           2.3930     0.8560    -0.4860 c6         1 DV1       0.099300
      4 O2           2.9500     1.1730    -1.7830 oh         1 DV1      -0.719000
      5 C3           0.2990     1.0320     0.9760 c5         1 DV1       0.109500
      6 C4           0.4900    -0.4610     1.4060 c5         1 DV1       0.323300
      7 O3           1.8220    -0.9600     1.1010 os         1 DV1      -0.396000
      8 C5           2.4110    -0.6750    -0.1960 c6         1 DV1       0.129300
      9 C6           3.8520    -1.2860    -0.2140 c3         1 DV1       0.170600
     10 O4           3.8780    -2.6900     0.1070 oh         1 DV1      -0.700000
     11 N1          -1.1960     1.2480     0.9300 n2         1 DV1      -0.668900
     12 C7          -1.7330     0.1340     0.6080 c2         1 DV1       0.710100
     13 S1          -0.7790    -1.3420     0.4250 ss         1 DV1      -0.475200
     14 N2          -3.0740     0.1240     0.4130 nu         1 DV1      -0.891400
     15 C8          -3.8030    -0.9320    -0.2760 c3         1 DV1       0.262000
     16 C9          -5.2380    -0.4830    -0.4100 c2         1 DV1      -0.240200
     17 C10         -5.6870     0.4730    -1.2440 c2         1 DV1      -0.298000
     18 H1           1.5680     2.8980    -1.4120 ho         1 DV1       0.454000
     19 H2           0.3630     0.8500    -1.1930 h1         1 DV1       0.054700
     20 H3           2.9750     1.3590     0.3030 h1         1 DV1       0.054700
     21 H4           3.9320     1.2130    -1.6890 ho         1 DV1       0.510000
     22 H5           0.7570     1.6820     1.7350 h1         1 DV1       0.101700
     23 H6           0.2680    -0.5850     2.4740 h2         1 DV1       0.112700
     24 H7           1.8200    -1.1900    -0.9680 h1         1 DV1       0.082700
     25 H8           4.2830    -1.1290    -1.2110 h1         1 DV1       0.025700
     26 H9           4.4700    -0.7260     0.5020 h1         1 DV1       0.025700
     27 H10          4.8250    -2.9610     0.1330 ho         1 DV1       0.504000
     28 H11         -3.4950     1.0460     0.4270 hn         1 DV1       0.497000
     29 H12         -3.3730    -1.1100    -1.2730 h1         1 DV1       0.056700
     30 H13         -3.7510    -1.8710     0.2920 h1         1 DV1       0.056700
     31 H14         -5.9280    -1.0150     0.2480 ha         1 DV1       0.183000
     32 H15         -5.0150     1.0150    -1.9120 ha         1 DV1       0.165500
     33 H16         -6.7430     0.7440    -1.2860 ha         1 DV1       0.165500
@<TRIPOS>BOND
     1     1     2 1   
     2     1    18 1   
     3     2     3 1   
     4     2     5 1   
     5     2    19 1   
     6     3     4 1   
     7     3     8 1   
     8     3    20 1   
     9     4    21 1   
    10     5     6 1   
    11     5    11 1   
    12     5    22 1   
    13     6     7 1   
    14     6    13 1   
    15     6    23 1   
    16     7     8 1   
    17     8     9 1   
    18     8    24 1   
    19     9    10 1   
    20     9    25 1   
    21     9    26 1   
    22    10    27 1   
    23    11    12 2   
    24    12    13 1   
    25    12    14 1   
    26    14    15 1   
    27    14    28 1   
    28    15    16 1   
    29    15    29 1   
    30    15    30 1   
    31    16    17 2   
    32    16    31 1   
    33    17    32 1   
    34    17    33 1   
@<TRIPOS>SUBSTRUCTURE
     1 DV1         1 TEMP              0 ****  ****    0 ROOT
