@<TRIPOS>MOLECULE
DV1
   33    34     1     0     0
SMALL
abcg2


@<TRIPOS>ATOM
      1 O1           1.2820     2.8840    -0.3700 oh         1 DV1      -0.637000
      2 C1           1.1980     1.4840    -0.3170 c6         1 DV1       0.171300
      3 C2           2.5730     0.8300    -0.2950 c6         1 DV1       0.099300
      4 O2           3.2060     1.1620    -1.5110 oh         1 DV1      -0.719000
      5 C3           0.3900     1.1160     0.9280 c5         1 DV1       0.109500
      6 C4           0.5050    -0.3800     1.2570 c5         1 DV1       0.323300
      7 O3           1.7390    -0.9560     1.0850 os         1 DV1      -0.396000
      8 C5           2.4050    -0.6830    -0.1390 c6         1 DV1       0.129300
      9 C6           3.7300    -1.4110    -0.1010 c3         1 DV1       0.170600
     10 O4           3.4910    -2.7950    -0.0280 oh         1 DV1      -0.700000
     11 N1          -1.0030     1.4360     0.7440 n2         1 DV1      -0.668900
     12 C7          -1.6750     0.4320     0.3260 c2         1 DV1       0.710100
     13 S1          -0.8400    -1.1350     0.2140 ss         1 DV1      -0.475200
     14 N2          -2.9790     0.4960    -0.0020 nu         1 DV1      -0.891400
     15 C8          -3.7510    -0.5530    -0.6340 c3         1 DV1       0.262000
     16 C9          -5.1800    -0.4810    -0.1950 c2         1 DV1      -0.240200
     17 C10         -6.2030    -0.3460    -1.0280 c2         1 DV1      -0.298000
     18 H1           1.7810     3.1180    -1.1600 ho         1 DV1       0.454000
     19 H2           0.6660     1.0890    -1.1980 h1         1 DV1       0.054700
     20 H3           3.1420     1.2130     0.5650 h1         1 DV1       0.054700
     21 H4           4.1580     1.1820    -1.3780 ho         1 DV1       0.510000
     22 H5           0.7980     1.6770     1.7760 h1         1 DV1       0.101700
     23 H6           0.2210    -0.5590     2.2950 h2         1 DV1       0.112700
     24 H7           1.8110    -1.0670    -0.9830 h1         1 DV1       0.082700
     25 H8           4.2870    -1.1470    -1.0060 h1         1 DV1       0.025700
     26 H9           4.3150    -1.0490     0.7570 h1         1 DV1       0.025700
     27 H10          4.3330    -3.2470    -0.1340 ho         1 DV1       0.504000
     28 H11         -3.3450     1.4330    -0.0790 hn         1 DV1       0.497000
     29 H12         -3.6840    -0.5020    -1.7260 h1         1 DV1       0.056700
     30 H13         -3.3380    -1.5180    -0.3310 h1         1 DV1       0.056700
     31 H14         -5.3510    -0.5550     0.8750 ha         1 DV1       0.183000
     32 H15         -6.0590    -0.2640    -2.0990 ha         1 DV1       0.165500
     33 H16         -7.2240    -0.3160    -0.6710 ha         1 DV1       0.165500
@<TRIPOS>BOND
     1     1     2 1   
     2     1    18 1   
     3     2     3 1   
     4     2     5 1   
     5     2    19 1   
     6     3     4 1   
     7     3     8 1   
     8     3    20 1   
     9     4    21 1   
    10     5     6 1   
    11     5    11 1   
    12     5    22 1   
    13     6     7 1   
    14     6    13 1   
    15     6    23 1   
    16     7     8 1   
    17     8     9 1   
    18     8    24 1   
    19     9    10 1   
    20     9    25 1   
    21     9    26 1   
    22    10    27 1   
    23    11    12 2   
    24    12    13 1   
    25    12    14 1   
    26    14    15 1   
    27    14    28 1   
    28    15    16 1   
    29    15    29 1   
    30    15    30 1   
    31    16    17 2   
    32    16    31 1   
    33    17    32 1   
    34    17    33 1   
@<TRIPOS>SUBSTRUCTURE
     1 DV1         1 TEMP              0 ****  ****    0 ROOT
