@<TRIPOS>MOLECULE
DV2
   56    58     1     0     0
SMALL
abcg2


@<TRIPOS>ATOM
      1 CAA          6.2310     2.8940    -2.6870 c3         1 DV2      -0.177100
      2 CAT          6.3370     1.7430    -1.7180 c          1 DV2       0.604100
      3 OAD          7.3800     1.1190    -1.5680 o          1 DV2      -0.619100
      4 N            5.2100     1.4490    -1.0500 ns         1 DV2      -0.501900
      5 CA           5.1210     0.3860    -0.0810 c3         1 DV2       0.045700
      6 CB           5.5800     0.8380     1.3080 c3         1 DV2      -0.108100
      7 C            3.6700    -0.0710    -0.0100 c          1 DV2       0.608100
      8 O            2.7580     0.6680    -0.3620 o          1 DV2      -0.622100
      9 NBD          3.4290    -1.2840     0.5030 n          1 DV2      -0.380800
     10 CAO          4.3860    -2.3050     0.8990 c5         1 DV2       0.070000
     11 CBA          3.5750    -3.5890     0.7590 c5         1 DV2       0.155300
     12 OAF          3.4420    -3.9880    -0.5850 oh         1 DV2      -0.654000
     13 CAN          2.2090    -3.1440     1.2530 c5         1 DV2      -0.085400
     14 CBC          2.0610    -1.7170     0.7000 c5         1 DV2       0.064700
     15 CAV          1.3120    -0.8280     1.6770 cs         1 DV2       0.375400
     16 SAG          2.0380    -0.2450     3.0520 s          1 DV2      -0.596400
     17 NAQ          0.0450    -0.6350     1.3750 ns         1 DV2      -0.375900
     18 CAM         -0.8920     0.1100     2.1960 c3         1 DV2       0.136300
     19 CAX         -2.1880     0.2890     1.4600 ca         1 DV2      -0.122300
     20 CAI         -3.2240    -0.6260     1.6080 ca         1 DV2      -0.089500
     21 CAK         -4.4100    -0.4760     0.9040 ca         1 DV2      -0.101000
     22 CAH         -2.3620     1.3610     0.5890 ca         1 DV2      -0.089500
     23 CAJ         -3.5420     1.5120    -0.1210 ca         1 DV2      -0.101000
     24 CAY         -4.5810     0.5910     0.0220 ca         1 DV2       0.010000
     25 CAZ         -5.8290     0.7460    -0.7270 cc         1 DV2      -0.197000
     26 SAS         -6.6100     2.2800    -0.8480 ss         1 DV2      -0.020400
     27 CAL         -7.8400     1.5600    -1.7960 cc         1 DV2       0.416300
     28 NAP         -7.6910     0.2940    -2.0090 nd         1 DV2      -0.636000
     29 CAW         -6.5580    -0.1900    -1.4140 cd         1 DV2       0.306300
     30 CAB         -6.2070    -1.6300    -1.5830 c3         1 DV2      -0.123400
     31 H1           6.4030     2.5280    -3.6990 hc         1 DV2       0.060367
     32 H2           5.2680     3.4000    -2.6640 hc         1 DV2       0.060367
     33 H3           7.0110     3.6240    -2.4690 hc         1 DV2       0.060367
     34 H4           4.3820     2.0070    -1.1920 hn         1 DV2       0.337500
     35 H5           5.7580    -0.4340    -0.4200 h1         1 DV2       0.079700
     36 H6           6.6180     1.1610     1.2660 hc         1 DV2       0.053700
     37 H7           4.9700     1.6710     1.6590 hc         1 DV2       0.053700
     38 H8           5.5040     0.0350     2.0410 hc         1 DV2       0.053700
     39 H9           5.2740    -2.3050     0.2680 h1         1 DV2       0.065200
     40 H10          4.7020    -2.1710     1.9370 h1         1 DV2       0.065200
     41 H11          3.9950    -4.3870     1.3810 h1         1 DV2       0.055700
     42 H12          4.3120    -4.2150    -0.9270 ho         1 DV2       0.449000
     43 H13          1.4010    -3.7980     0.9270 hc         1 DV2       0.076200
     44 H14          2.2140    -3.1250     2.3440 hc         1 DV2       0.076200
     45 H15          1.5300    -1.7280    -0.2570 h1         1 DV2       0.075700
     46 H16         -0.3070    -1.0280     0.5120 hn         1 DV2       0.320500
     47 H17         -1.0470    -0.4190     3.1400 h1         1 DV2       0.080200
     48 H18         -0.4470     1.0750     2.4460 h1         1 DV2       0.080200
     49 H19         -3.1140    -1.4600     2.2910 ha         1 DV2       0.122500
     50 H20         -5.2130    -1.1840     1.0610 ha         1 DV2       0.124000
     51 H21         -1.5690     2.0870     0.4600 ha         1 DV2       0.122500
     52 H22         -3.6480     2.3460    -0.8030 ha         1 DV2       0.124000
     53 H23         -8.6670     2.1450    -2.1750 h5         1 DV2       0.054100
     54 H24         -6.7770    -2.2620    -0.8980 hc         1 DV2       0.052033
     55 H25         -6.4380    -1.9580    -2.5960 hc         1 DV2       0.052033
     56 H26         -5.1510    -1.8120    -1.3970 hc         1 DV2       0.052033
@<TRIPOS>BOND
     1     1     2 1   
     2     1    31 1   
     3     1    32 1   
     4     1    33 1   
     5     2     3 2   
     6     2     4 1   
     7     4     5 1   
     8     4    34 1   
     9     5     6 1   
    10     5     7 1   
    11     5    35 1   
    12     6    36 1   
    13     6    37 1   
    14     6    38 1   
    15     7     8 2   
    16     7     9 1   
    17     9    10 1   
    18     9    14 1   
    19    10    11 1   
    20    10    39 1   
    21    10    40 1   
    22    11    12 1   
    23    11    13 1   
    24    11    41 1   
    25    12    42 1   
    26    13    14 1   
    27    13    43 1   
    28    13    44 1   
    29    14    15 1   
    30    14    45 1   
    31    15    16 2   
    32    15    17 1   
    33    17    18 1   
    34    17    46 1   
    35    18    19 1   
    36    18    47 1   
    37    18    48 1   
    38    19    20 ar  
    39    19    22 ar  
    40    20    21 ar  
    41    20    49 1   
    42    21    24 ar  
    43    21    50 1   
    44    22    23 ar  
    45    22    51 1   
    46    23    24 ar  
    47    23    52 1   
    48    24    25 1   
    49    25    26 1   
    50    25    29 2   
    51    26    27 1   
    52    27    28 2   
    53    27    53 1   
    54    28    29 1   
    55    29    30 1   
    56    30    54 1   
    57    30    55 1   
    58    30    56 1   
@<TRIPOS>SUBSTRUCTURE
     1 DV2         1 TEMP              0 ****  ****    0 ROOT
