@<TRIPOS>MOLECULE
DV2
   56    58     1     0     0
SMALL
No Charge or Current Charge


@<TRIPOS>ATOM
      1 CAA          7.2430     3.0880    -2.0900 c3         1 DV2      -0.177100
      2 CAT          7.1180     1.7640    -1.3490 c          1 DV2       0.604100
      3 OAD          8.0560     0.9920    -1.2160 o          1 DV2      -0.619100
      4 N            5.8650     1.5000    -0.8470 ns         1 DV2      -0.501900
      5 CA           5.4850     0.2900    -0.0830 c3         1 DV2       0.045700
      6 CB           6.0150     0.3770     1.3700 c3         1 DV2      -0.108100
      7 C            3.9360     0.0760    -0.1290 c          1 DV2       0.608100
      8 O            3.1840     0.9580    -0.5370 o          1 DV2      -0.622100
      9 NBD          3.4050    -1.1360     0.3650 n          1 DV2      -0.380800
     10 CAO          4.1730    -2.4080     0.3990 c5         1 DV2       0.070000
     11 CBA          3.0550    -3.4960     0.4220 c5         1 DV2       0.155300
     12 OAF          2.6260    -3.8690    -0.8930 oh         1 DV2      -0.654000
     13 CAN          1.9310    -2.7600     1.1910 c5         1 DV2      -0.085400
     14 CBC          1.9450    -1.3480     0.5330 c5         1 DV2       0.064700
     15 CAV          1.2640    -0.3750     1.5390 cs         1 DV2       0.375400
     16 SAG          1.9720     0.3060     2.9040 s          1 DV2      -0.596400
     17 NAQ         -0.0560    -0.1940     1.2130 ns         1 DV2      -0.375900
     18 CAM         -1.0110     0.6310     1.9450 c3         1 DV2       0.136300
     19 CAX         -2.3830     0.5830     1.2910 ca         1 DV2      -0.122300
     20 CAI         -3.3140    -0.4040     1.6650 ca         1 DV2      -0.089500
     21 CAK         -4.5800    -0.4510     1.0550 ca         1 DV2      -0.101000
     22 CAH         -2.7330     1.5240     0.3040 ca         1 DV2      -0.089500
     23 CAJ         -3.9990     1.4750    -0.3040 ca         1 DV2      -0.101000
     24 CAY         -4.9280     0.4820     0.0590 ca         1 DV2       0.010000
     25 CAZ         -6.2430     0.4510    -0.5750 cc         1 DV2      -0.197000
     26 SAS         -7.2970     1.8220    -0.7370 ss         1 DV2      -0.020400
     27 CAL         -8.3960     0.7610    -1.5820 cc         1 DV2       0.416300
     28 NAP         -7.9960    -0.4960    -1.7620 nd         1 DV2      -0.636000
     29 CAW         -6.7440    -0.6790    -1.1920 cd         1 DV2       0.306300
     30 CAB         -6.0790    -2.0240    -1.3170 c3         1 DV2      -0.123400
     31 H1           6.4920     3.1240    -2.8870 hc         1 DV2       0.060367
     32 H2           6.9190     3.8990    -1.4280 hc         1 DV2       0.060367
     33 H3           8.2530     3.2610    -2.4780 hc         1 DV2       0.060367
     34 H4           5.1440     2.1900    -1.0320 hn         1 DV2       0.337500
     35 H5           5.9460    -0.5770    -0.5730 h1         1 DV2       0.079700
     36 H6           7.1060     0.4840     1.3820 hc         1 DV2       0.053700
     37 H7           5.5800     1.2420     1.8850 hc         1 DV2       0.053700
     38 H8           5.7600    -0.5200     1.9430 hc         1 DV2       0.053700
     39 H9           4.8320    -2.5240    -0.4710 h1         1 DV2       0.065200
     40 H10          4.7870    -2.4680     1.3070 h1         1 DV2       0.065200
     41 H11          3.3870    -4.3900     0.9710 h1         1 DV2       0.055700
     42 H12          3.3470    -4.4050    -1.2910 ho         1 DV2       0.449000
     43 H13          0.9590    -3.2570     1.1000 hc         1 DV2       0.076200
     44 H14          2.1700    -2.7130     2.2600 hc         1 DV2       0.076200
     45 H15          1.4310    -1.3300    -0.4370 h1         1 DV2       0.075700
     46 H16         -0.3980    -0.6670     0.3840 hn         1 DV2       0.320500
     47 H17         -1.0780     0.2700     2.9800 h1         1 DV2       0.080200
     48 H18         -0.6440     1.6660     1.9710 h1         1 DV2       0.080200
     49 H19         -3.0590    -1.1350     2.4300 ha         1 DV2       0.122500
     50 H20         -5.2940    -1.2100     1.3660 ha         1 DV2       0.124000
     51 H21         -2.0240     2.2930     0.0050 ha         1 DV2       0.122500
     52 H22         -4.2570     2.2060    -1.0660 ha         1 DV2       0.124000
     53 H23         -9.3410     1.1580    -1.9330 h5         1 DV2       0.054100
     54 H24         -6.2510    -2.6300    -0.4200 hc         1 DV2       0.052033
     55 H25         -6.4690    -2.5830    -2.1760 hc         1 DV2       0.052033
     56 H26         -4.9970    -1.9210    -1.4570 hc         1 DV2       0.052033
@<TRIPOS>BOND
     1     1     2 1   
     2     1    31 1   
     3     1    32 1   
     4     1    33 1   
     5     2     3 2   
     6     2     4 1   
     7     4     5 1   
     8     4    34 1   
     9     5     6 1   
    10     5     7 1   
    11     5    35 1   
    12     6    36 1   
    13     6    37 1   
    14     6    38 1   
    15     7     8 2   
    16     7     9 1   
    17     9    10 1   
    18     9    14 1   
    19    10    11 1   
    20    10    39 1   
    21    10    40 1   
    22    11    12 1   
    23    11    13 1   
    24    11    41 1   
    25    12    42 1   
    26    13    14 1   
    27    13    43 1   
    28    13    44 1   
    29    14    15 1   
    30    14    45 1   
    31    15    16 2   
    32    15    17 1   
    33    17    18 1   
    34    17    46 1   
    35    18    19 1   
    36    18    47 1   
    37    18    48 1   
    38    19    20 ar  
    39    19    22 ar  
    40    20    21 ar  
    41    20    49 1   
    42    21    24 ar  
    43    21    50 1   
    44    22    23 ar  
    45    22    51 1   
    46    23    24 ar  
    47    23    52 1   
    48    24    25 1   
    49    25    26 1   
    50    25    29 2   
    51    26    27 1   
    52    27    28 2   
    53    27    53 1   
    54    28    29 1   
    55    29    30 1   
    56    30    54 1   
    57    30    55 1   
    58    30    56 1   
@<TRIPOS>SUBSTRUCTURE
     1 DV2         1 TEMP              0 ****  ****    0 ROOT
