@<TRIPOS>MOLECULE
DV3
   22    22     1     0     0
SMALL
No Charge or Current Charge


@<TRIPOS>ATOM
      1 O5          -0.6440    -0.6720    -0.4200 os         1 DV3      -0.572400
      2 P           -2.0120     0.0860    -0.0350 p5         1 DV3       1.229800
      3 SP3         -1.3610     2.0480    -0.3180 sh         1 DV3      -0.683200
      4 OP2         -2.4010    -0.1590     1.3830 o          1 DV3      -0.751500
      5 OP3         -3.1000    -0.2130    -1.0070 o          1 DV3      -0.751500
      6 C2           3.3360     0.6730     0.7930 c5         1 DV3      -0.153400
      7 C5           0.5000    -0.5810     0.4480 c3         1 DV3       0.200600
      8 C4           1.7990    -0.7380    -0.4030 c5         1 DV3       0.163300
      9 O4           2.0480     0.4350    -1.2190 os         1 DV3      -0.434000
     10 C1           2.6470     1.4440    -0.3780 c5         1 DV3       0.162600
     11 C3           3.1050    -0.8280     0.4470 c5         1 DV3       0.129300
     12 O3           4.2130    -1.3680    -0.2860 oh         1 DV3      -0.714000
     13 H1          -1.8920     1.8720    -1.5510 hs         1 DV3       0.299800
     14 H5           0.5200     0.3680     1.0000 h1         1 DV3       0.033700
     15 H6           0.4690    -1.3910     1.1880 h1         1 DV3       0.033700
     16 H7           1.6840    -1.6170    -1.0500 h1         1 DV3       0.085700
     17 H8           1.8630     2.1190    -0.0090 h1         1 DV3       0.037700
     18 H9           3.3610     2.0290    -0.9720 h1         1 DV3       0.037700
     19 H10          2.9430    -1.4230     1.3580 h1         1 DV3       0.047700
     20 H11          5.0020    -1.3090     0.3000 ho         1 DV3       0.490000
     21 H3           4.3970     0.9310     0.8880 hc         1 DV3       0.054700
     22 H4           2.8650     0.9330     1.7480 hc         1 DV3       0.054700
@<TRIPOS>BOND
     1     1     2 1   
     2     1     7 1   
     3     2     3 1   
     4     2     4 1   
     5     2     5 1   
     6     3    13 1   
     7     6    10 1   
     8     6    11 1   
     9     6    21 1   
    10     6    22 1   
    11     7     8 1   
    12     7    14 1   
    13     7    15 1   
    14     8     9 1   
    15     8    11 1   
    16     8    16 1   
    17     9    10 1   
    18    10    17 1   
    19    10    18 1   
    20    11    12 1   
    21    11    19 1   
    22    12    20 1   
@<TRIPOS>SUBSTRUCTURE
     1 DV3         1 TEMP              0 ****  ****    0 ROOT
