@<TRIPOS>MOLECULE
DV3
   22    22     1     0     0
SMALL
abcg2


@<TRIPOS>ATOM
      1 O5          -0.5870    -0.6070    -0.5310 os         1 DV3      -0.572400
      2 P           -2.0600    -0.1000    -0.0400 p5         1 DV3       1.229800
      3 SP3         -1.7040     1.9700     0.4070 sh         1 DV3      -0.683200
      4 OP2         -2.4080    -0.6770     1.2940 o          1 DV3      -0.751500
      5 OP3         -2.9400    -0.2120    -1.2400 o          1 DV3      -0.751500
      6 C2           3.1950     0.8130     0.7200 c5         1 DV3      -0.153400
      7 C5           0.4820    -0.6650     0.3910 c3         1 DV3       0.200600
      8 C4           1.7860    -0.7150    -0.3860 c5         1 DV3       0.163300
      9 O4           1.9260     0.4160    -1.2270 os         1 DV3      -0.434000
     10 C1           2.8460     1.3440    -0.6650 c5         1 DV3       0.162600
     11 C3           2.9880    -0.6890     0.5510 c5         1 DV3       0.129300
     12 O3           4.0680    -1.3060    -0.1140 oh         1 DV3      -0.714000
     13 H1          -1.4020     2.3810    -0.8300 hs         1 DV3       0.299800
     14 H5           0.4740     0.2080     1.0550 h1         1 DV3       0.033700
     15 H6           0.4040    -1.5580     1.0190 h1         1 DV3       0.033700
     16 H7           1.7940    -1.6170    -1.0090 h1         1 DV3       0.085700
     17 H8           2.3910     2.3370    -0.6270 h1         1 DV3       0.037700
     18 H9           3.7360     1.4100    -1.2990 h1         1 DV3       0.037700
     19 H10          2.7720    -1.1840     1.5060 h1         1 DV3       0.047700
     20 H11          4.8590    -1.1820     0.4190 ho         1 DV3       0.490000
     21 H3           4.2070     1.0710     1.0320 hc         1 DV3       0.054700
     22 H4           2.5120     1.2010     1.4780 hc         1 DV3       0.054700
@<TRIPOS>BOND
     1     1     2 1   
     2     1     7 1   
     3     2     3 1   
     4     2     4 1   
     5     2     5 1   
     6     3    13 1   
     7     6    10 1   
     8     6    11 1   
     9     6    21 1   
    10     6    22 1   
    11     7     8 1   
    12     7    14 1   
    13     7    15 1   
    14     8     9 1   
    15     8    11 1   
    16     8    16 1   
    17     9    10 1   
    18    10    17 1   
    19    10    18 1   
    20    11    12 1   
    21    11    19 1   
    22    12    20 1   
@<TRIPOS>SUBSTRUCTURE
     1 DV3         1 TEMP              0 ****  ****    0 ROOT
