@<TRIPOS>MOLECULE
DV5
   56    58     1     0     0
SMALL
bcc


@<TRIPOS>ATOM
      1 CAA          8.5820     1.6850    -0.7770 c3         1 DV5      -0.176100
      2 CAT          7.7590     0.6590    -0.0380 c          1 DV5       0.672100
      3 OAD          8.2630    -0.3430     0.4540 o          1 DV5      -0.623100
      4 NAR          6.4420     0.9190     0.0190 ns         1 DV5      -0.570900
      5 CBB          5.4950     0.0540     0.6690 c3         1 DV5       0.070700
      6 CAC          5.2960     0.4270     2.1430 c3         1 DV5      -0.109100
      7 CAV          4.1410     0.1220    -0.0200 cs         1 DV5       0.454400
      8 SAG          3.6360     1.5290    -0.7600 s          1 DV5      -0.606400
      9 N            3.3630    -0.9410     0.0800 n          1 DV5      -0.335800
     10 CD2          3.7160    -2.2530     0.6220 c5         1 DV5       0.039000
     11 CG           2.7340    -3.1840    -0.0760 c5         1 DV5       0.133100
     12 OD1          3.1110    -3.4400    -1.4070 oh         1 DV5      -0.587800
     13 CB           1.4720    -2.3410    -0.1010 c5         1 DV5      -0.085400
     14 CA           1.9820    -0.9180    -0.3780 c5         1 DV5       0.013700
     15 C            1.1660     0.0910     0.4240 c          1 DV5       0.679100
     16 O            1.3860     0.2770     1.6080 o          1 DV5      -0.598100
     17 NAQ          0.1500     0.6370    -0.2600 ns         1 DV5      -0.556900
     18 CAM         -0.8220     1.5350     0.3110 c3         1 DV5       0.142300
     19 CAX         -2.2360     1.0230     0.1970 ca         1 DV5      -0.099300
     20 CAI         -2.5350    -0.3270     0.3530 ca         1 DV5      -0.118500
     21 CAK         -3.8430    -0.7770     0.2820 ca         1 DV5      -0.113500
     22 CAH         -3.2820     1.9100    -0.0300 ca         1 DV5      -0.118500
     23 CAJ         -4.5940     1.4670    -0.0910 ca         1 DV5      -0.113500
     24 CAY         -4.8950     0.1130     0.0550 ca         1 DV5      -0.005000
     25 CAZ         -6.2770    -0.3620    -0.0210 cc         1 DV5      -0.105400
     26 SAS         -6.8850    -1.5060     1.1210 ss         1 DV5      -0.175300
     27 CAL         -8.4030    -1.4660     0.3290 cc         1 DV5       0.415300
     28 NAP         -8.4610    -0.6760    -0.6920 nd         1 DV5      -0.637000
     29 CAW         -7.2690    -0.0410    -0.9100 cd         1 DV5       0.367600
     30 CAB         -7.1500     0.8890    -2.0720 c3         1 DV5      -0.122400
     31 H1           8.9840     1.2330    -1.6850 hc         1 DV5       0.062033
     32 H2           8.0210     2.5740    -1.0570 hc         1 DV5       0.062033
     33 H3           9.4290     1.9860    -0.1620 hc         1 DV5       0.062033
     34 H4           6.0750     1.7720    -0.3800 hn         1 DV5       0.349500
     35 H5           5.8930    -0.9580     0.6150 h1         1 DV5       0.078700
     36 H6           4.9500     1.4560     2.2280 hc         1 DV5       0.055033
     37 H7           4.5620    -0.2190     2.6250 hc         1 DV5       0.055033
     38 H8           6.2380     0.3270     2.6790 hc         1 DV5       0.055033
     39 H9           4.7520    -2.5150     0.4130 h1         1 DV5       0.074700
     40 H10          3.5660    -2.2740     1.7050 h1         1 DV5       0.074700
     41 H11          2.6030    -4.1070     0.4970 h1         1 DV5       0.059700
     42 H12          3.9360    -3.9380    -1.4050 ho         1 DV5       0.413000
     43 H13          0.7510    -2.6730    -0.8460 hc         1 DV5       0.077200
     44 H14          0.9940    -2.3960     0.8780 hc         1 DV5       0.077200
     45 H15          1.9570    -0.6850    -1.4460 h1         1 DV5       0.102700
     46 H16          0.1010     0.4790    -1.2540 hn         1 DV5       0.320500
     47 H17         -0.5660     1.6820     1.3610 h1         1 DV5       0.070700
     48 H18         -0.7460     2.5140    -0.1680 h1         1 DV5       0.070700
     49 H19         -1.7420    -1.0450     0.5220 ha         1 DV5       0.133500
     50 H20         -4.0430    -1.8370     0.3880 ha         1 DV5       0.137000
     51 H21         -3.0770     2.9670    -0.1540 ha         1 DV5       0.133500
     52 H22         -5.3900     2.1850    -0.2390 ha         1 DV5       0.137000
     53 H23         -9.2290    -2.0700     0.6760 h5         1 DV5       0.053100
     54 H24         -7.5660     1.8710    -1.8390 hc         1 DV5       0.052033
     55 H25         -6.1140     1.0330    -2.3720 hc         1 DV5       0.052033
     56 H26         -7.7010     0.4970    -2.9260 hc         1 DV5       0.052033
@<TRIPOS>BOND
     1     1     2 1   
     2     1    31 1   
     3     1    32 1   
     4     1    33 1   
     5     2     3 2   
     6     2     4 1   
     7     4     5 1   
     8     4    34 1   
     9     5     6 1   
    10     5     7 1   
    11     5    35 1   
    12     6    36 1   
    13     6    37 1   
    14     6    38 1   
    15     7     8 2   
    16     7     9 1   
    17     9    10 1   
    18     9    14 1   
    19    10    11 1   
    20    10    39 1   
    21    10    40 1   
    22    11    12 1   
    23    11    13 1   
    24    11    41 1   
    25    12    42 1   
    26    13    14 1   
    27    13    43 1   
    28    13    44 1   
    29    14    15 1   
    30    14    45 1   
    31    15    16 2   
    32    15    17 1   
    33    17    18 1   
    34    17    46 1   
    35    18    19 1   
    36    18    47 1   
    37    18    48 1   
    38    19    20 ar  
    39    19    22 ar  
    40    20    21 ar  
    41    20    49 1   
    42    21    24 ar  
    43    21    50 1   
    44    22    23 ar  
    45    22    51 1   
    46    23    24 ar  
    47    23    52 1   
    48    24    25 1   
    49    25    26 1   
    50    25    29 2   
    51    26    27 1   
    52    27    28 2   
    53    27    53 1   
    54    28    29 1   
    55    29    30 1   
    56    30    54 1   
    57    30    55 1   
    58    30    56 1   
@<TRIPOS>SUBSTRUCTURE
     1 DV5         1 TEMP              0 ****  ****    0 ROOT
