@<TRIPOS>MOLECULE
DV5
   56    58     1     0     0
SMALL
No Charge or Current Charge


@<TRIPOS>ATOM
      1 CAA          7.8190     2.7290    -1.5530 c3         1 DV5      -0.176100
      2 CAT          7.4400     1.4070    -0.9010 c          1 DV5       0.605100
      3 OAD          8.2470     0.5070    -0.7200 o          1 DV5      -0.623100
      4 NAR          6.1190     1.3020    -0.5380 ns         1 DV5      -0.503900
      5 CBB          5.5000     0.1350     0.1160 c3         1 DV5       0.070700
      6 CAC          5.8820     0.1230     1.6160 c3         1 DV5      -0.109100
      7 CAV          3.9660     0.0780    -0.0840 cs         1 DV5       0.387400
      8 SAG          3.1280     1.4690    -0.5400 s          1 DV5      -0.606400
      9 N            3.3320    -1.1250     0.2110 n          1 DV5      -0.268800
     10 CD2          4.0020    -2.4510     0.3210 c5         1 DV5       0.039000
     11 CG           2.8480    -3.4600     0.0590 c5         1 DV5       0.156300
     12 OD1          2.5790    -3.6310    -1.3370 oh         1 DV5      -0.650000
     13 CB           1.6800    -2.7470     0.7710 c5         1 DV5      -0.085400
     14 CA           1.8480    -1.2660     0.3080 c5         1 DV5       0.013700
     15 C            1.1720    -0.3570     1.3790 c          1 DV5       0.612100
     16 O            1.6900     0.1410     2.3710 o          1 DV5      -0.598100
     17 NAQ         -0.1580    -0.1870     1.0640 ns         1 DV5      -0.489900
     18 CAM         -1.0900     0.6080     1.8570 c3         1 DV5       0.142300
     19 CAX         -2.4900     0.5550     1.2670 ca         1 DV5      -0.099300
     20 CAI         -3.3910    -0.4520     1.6620 ca         1 DV5      -0.100500
     21 CAK         -4.6830    -0.5030     1.1120 ca         1 DV5      -0.095500
     22 CAH         -2.8970     1.5090     0.3150 ca         1 DV5      -0.100500
     23 CAJ         -4.1890     1.4560    -0.2350 ca         1 DV5      -0.095500
     24 CAY         -5.0880     0.4430     0.1520 ca         1 DV5      -0.005000
     25 CAZ         -6.4380     0.3810    -0.4030 cc         1 DV5      -0.185000
     26 SAS         -7.8910     0.2420     0.5380 ss         1 DV5      -0.030400
     27 CAL         -8.7590     0.2050    -0.9750 cc         1 DV5       0.415300
     28 NAP         -8.0280     0.2530    -2.0870 nd         1 DV5      -0.637000
     29 CAW         -6.6820     0.3420    -1.7620 cd         1 DV5       0.302300
     30 CAB         -5.6670     0.3650    -2.8750 c3         1 DV5      -0.122400
     31 H1           7.1660     2.9020    -2.4160 hc         1 DV5       0.062033
     32 H2           7.5420     3.5500    -0.8820 hc         1 DV5       0.062033
     33 H3           8.8780     2.7740    -1.8320 hc         1 DV5       0.062033
     34 H4           5.5210     2.0930    -0.7520 hn         1 DV5       0.349500
     35 H5           5.9210    -0.7590    -0.3600 h1         1 DV5       0.078700
     36 H6           5.5010     1.0220     2.1160 hc         1 DV5       0.055033
     37 H7           5.4660    -0.7490     2.1300 hc         1 DV5       0.055033
     38 H8           6.9710     0.0980     1.7430 hc         1 DV5       0.055033
     39 H9           4.8100    -2.5800    -0.4100 h1         1 DV5       0.074700
     40 H10          4.4210    -2.5960     1.3260 h1         1 DV5       0.074700
     41 H11          3.0590    -4.4350     0.5220 h1         1 DV5       0.059700
     42 H12          3.3110    -4.1700    -1.7100 ho         1 DV5       0.452000
     43 H13          0.7020    -3.1650     0.5050 hc         1 DV5       0.077200
     44 H14          1.7840    -2.8440     1.8590 hc         1 DV5       0.077200
     45 H15          1.3860    -1.0890    -0.6720 h1         1 DV5       0.102700
     46 H16         -0.5060    -0.6400     0.2270 hn         1 DV5       0.320500
     47 H17         -1.1050     0.2240     2.8860 h1         1 DV5       0.070700
     48 H18         -0.7370     1.6480     1.8900 h1         1 DV5       0.070700
     49 H19         -3.0900    -1.1960     2.3970 ha         1 DV5       0.115500
     50 H20         -5.3680    -1.2870     1.4250 ha         1 DV5       0.119000
     51 H21         -2.2130     2.2950     0.0030 ha         1 DV5       0.115500
     52 H22         -4.4940     2.2100    -0.9560 ha         1 DV5       0.119000
     53 H23         -9.8400     0.1340    -0.9570 h5         1 DV5       0.053100
     54 H24         -5.3760     1.3930    -3.1170 hc         1 DV5       0.052033
     55 H25         -4.7630    -0.1900    -2.6000 hc         1 DV5       0.052033
     56 H26         -6.0670    -0.0920    -3.7880 hc         1 DV5       0.052033
@<TRIPOS>BOND
     1     1     2 1   
     2     1    31 1   
     3     1    32 1   
     4     1    33 1   
     5     2     3 2   
     6     2     4 1   
     7     4     5 1   
     8     4    34 1   
     9     5     6 1   
    10     5     7 1   
    11     5    35 1   
    12     6    36 1   
    13     6    37 1   
    14     6    38 1   
    15     7     8 2   
    16     7     9 1   
    17     9    10 1   
    18     9    14 1   
    19    10    11 1   
    20    10    39 1   
    21    10    40 1   
    22    11    12 1   
    23    11    13 1   
    24    11    41 1   
    25    12    42 1   
    26    13    14 1   
    27    13    43 1   
    28    13    44 1   
    29    14    15 1   
    30    14    45 1   
    31    15    16 2   
    32    15    17 1   
    33    17    18 1   
    34    17    46 1   
    35    18    19 1   
    36    18    47 1   
    37    18    48 1   
    38    19    20 ar  
    39    19    22 ar  
    40    20    21 ar  
    41    20    49 1   
    42    21    24 ar  
    43    21    50 1   
    44    22    23 ar  
    45    22    51 1   
    46    23    24 ar  
    47    23    52 1   
    48    24    25 1   
    49    25    26 1   
    50    25    29 2   
    51    26    27 1   
    52    27    28 2   
    53    27    53 1   
    54    28    29 1   
    55    29    30 1   
    56    30    54 1   
    57    30    55 1   
    58    30    56 1   
@<TRIPOS>SUBSTRUCTURE
     1 DV5         1 TEMP              0 ****  ****    0 ROOT
