@<TRIPOS>MOLECULE
DV7
   31    32     1     0     0
SMALL
No Charge or Current Charge


@<TRIPOS>ATOM
      1 C           14.8020    51.2470    38.8860 c          1 DV7       0.715000
      2 O           15.2840    51.3450    37.7650 o          1 DV7      -0.727000
      3 CA          15.1500    49.9450    39.7330 c3         1 DV7       0.013500
      4 N           16.4260    50.0010    40.5380 n8         1 DV7      -1.018200
      5 CB          13.9550    49.5010    40.6260 c3         1 DV7      -0.040400
      6 CG          14.0490    48.0560    41.1850 c3         1 DV7      -0.059200
      7 CD          14.0250    46.9810    40.1190 cc         1 DV7       0.083600
      8 CE2         12.8160    46.5700    39.3880 ca         1 DV7      -0.172800
      9 CZ3         11.5520    47.1370    39.6780 ca         1 DV7       0.005000
     10 CH2         10.4070    46.7370    38.9680 ca         1 DV7      -0.240000
     11 CT          10.5040    45.7650    37.9660 ca         1 DV7       0.176100
     12 OI           9.3960    45.3760    37.2790 oh         1 DV7      -0.533100
     13 CH1         11.7430    45.1880    37.6740 ca         1 DV7      -0.188000
     14 CZ2         12.8870    45.5860    38.3790 ca         1 DV7       0.207100
     15 OH1         14.0750    44.9860    38.0710 os         1 DV7      -0.347200
     16 CZ1         15.2420    45.2770    38.7070 c          1 DV7       0.681300
     17 CE1         15.1710    46.3070    39.7520 cd         1 DV7      -0.361200
     18 OH2         16.2880    44.7150    38.4200 o          1 DV7      -0.513000
     19 H2          15.3010    49.1500    38.9890 h1         1 DV7       0.010700
     20 H3          16.6170    49.0750    40.9370 hn         1 DV7       0.389000
     21 H4          17.2170    50.1610    39.9010 hn         1 DV7       0.389000
     22 H6          13.8510    50.2010    41.4650 hc         1 DV7       0.050200
     23 H7          13.0320    49.5880    40.0400 hc         1 DV7       0.050200
     24 H8          13.2240    47.8920    41.8880 hc         1 DV7       0.046200
     25 H9          14.9570    47.9620    41.7920 hc         1 DV7       0.046200
     26 H10         11.4400    47.8900    40.4540 ha         1 DV7       0.130000
     27 H11          9.4470    47.1880    39.2070 ha         1 DV7       0.114000
     28 H12          8.6310    45.8850    37.6210 ho         1 DV7       0.466000
     29 H13         11.8200    44.4300    36.9010 ha         1 DV7       0.143000
     30 H14         16.1240    46.5130    40.2200 ha         1 DV7       0.214000
     31 O1          14.0740    52.1040    39.3740 o          1 DV7      -0.727000
@<TRIPOS>BOND
     1     1     2 1   
     2     1     3 1   
     3     1    31 1   
     4     3     4 1   
     5     3     5 1   
     6     3    19 1   
     7     4    20 1   
     8     4    21 1   
     9     5     6 1   
    10     5    22 1   
    11     5    23 1   
    12     6     7 1   
    13     6    24 1   
    14     6    25 1   
    15     7     8 1   
    16     7    17 2   
    17     8     9 ar  
    18     8    14 ar  
    19     9    10 ar  
    20     9    26 1   
    21    10    11 ar  
    22    10    27 1   
    23    11    12 1   
    24    11    13 ar  
    25    12    28 1   
    26    13    14 ar  
    27    13    29 1   
    28    14    15 1   
    29    15    16 1   
    30    16    17 1   
    31    16    18 2   
    32    17    30 1   
@<TRIPOS>SUBSTRUCTURE
     1 DV7         1 TEMP              0 ****  ****    0 ROOT
