@<TRIPOS>MOLECULE
DV7
   31    32     1     0     0
SMALL
abcg2


@<TRIPOS>ATOM
      1 C           14.9610    51.2180    38.9540 c          1 DV7       0.715000
      2 O           15.9060    52.0290    39.0260 o          1 DV7      -0.727000
      3 CA          15.1600    49.8310    39.6240 c3         1 DV7       0.013500
      4 N           16.3840    49.7860    40.4130 n8         1 DV7      -1.018200
      5 CB          13.9520    49.4700    40.4890 c3         1 DV7      -0.040400
      6 CG          14.0460    48.0780    41.1300 c3         1 DV7      -0.059200
      7 CD          14.0200    46.9710    40.1240 cc         1 DV7       0.083600
      8 CE2         12.7900    46.6090    39.4590 ca         1 DV7      -0.172800
      9 CZ3         11.5400    47.1800    39.7300 ca         1 DV7       0.005000
     10 CH2         10.4060    46.7870    39.0570 ca         1 DV7      -0.240000
     11 CT          10.4880    45.7930    38.0720 ca         1 DV7       0.176100
     12 OI           9.4220    45.3770    37.3780 oh         1 DV7      -0.533100
     13 CH1         11.7100    45.1970    37.7880 ca         1 DV7      -0.188000
     14 CZ2         12.8350    45.6080    38.4830 ca         1 DV7       0.207100
     15 OH1         13.9950    44.9860    38.1740 os         1 DV7      -0.347200
     16 CZ1         15.1740    45.2640    38.7950 c          1 DV7       0.681300
     17 CE1         15.1500    46.3030    39.7940 cd         1 DV7      -0.361200
     18 OH2         16.1380    44.6230    38.4550 o          1 DV7      -0.513000
     19 H2          15.1960    49.1130    38.7890 h1         1 DV7       0.010700
     20 H3          16.8720    48.9150    40.2640 hn         1 DV7       0.389000
     21 H4          16.9860    50.5260    40.0730 hn         1 DV7       0.389000
     22 H6          13.8650    50.2000    41.2990 hc         1 DV7       0.050200
     23 H7          13.0430    49.5480    39.8920 hc         1 DV7       0.050200
     24 H8          13.2220    47.9470    41.8350 hc         1 DV7       0.046200
     25 H9          14.9670    48.0150    41.7120 hc         1 DV7       0.046200
     26 H10         11.4500    47.9460    40.4880 ha         1 DV7       0.130000
     27 H11          9.4530    47.2460    39.2900 ha         1 DV7       0.114000
     28 H12          8.6260    45.8480    37.6530 ho         1 DV7       0.466000
     29 H13         11.7840    44.4200    37.0380 ha         1 DV7       0.143000
     30 H14         16.0930    46.5300    40.2730 ha         1 DV7       0.214000
     31 O1          13.8730    51.3930    38.3730 o          1 DV7      -0.727000
@<TRIPOS>BOND
     1     1     2 1   
     2     1     3 1   
     3     1    31 1   
     4     3     4 1   
     5     3     5 1   
     6     3    19 1   
     7     4    20 1   
     8     4    21 1   
     9     5     6 1   
    10     5    22 1   
    11     5    23 1   
    12     6     7 1   
    13     6    24 1   
    14     6    25 1   
    15     7     8 1   
    16     7    17 2   
    17     8     9 ar  
    18     8    14 ar  
    19     9    10 ar  
    20     9    26 1   
    21    10    11 ar  
    22    10    27 1   
    23    11    12 1   
    24    11    13 ar  
    25    12    28 1   
    26    13    14 ar  
    27    13    29 1   
    28    14    15 1   
    29    15    16 1   
    30    16    17 1   
    31    16    18 2   
    32    17    30 1   
@<TRIPOS>SUBSTRUCTURE
     1 DV7         1 TEMP              0 ****  ****    0 ROOT
