@<TRIPOS>MOLECULE
DV8
   56    58     1     0     0
SMALL
No Charge or Current Charge


@<TRIPOS>ATOM
      1 CAA         -4.2450     3.4330     3.0760 c3         1 DV8      -0.176100
      2 CAT         -4.7550     2.3970     2.0830 c          1 DV8       0.605100
      3 OAD         -5.9450     2.2150     1.8750 o          1 DV8      -0.623100
      4 NAR         -3.7720     1.6790     1.4440 ns         1 DV8      -0.504900
      5 CBB         -3.9960     0.6280     0.4360 c3         1 DV8       0.071700
      6 CAC         -4.3570     1.2850    -0.9190 c3         1 DV8      -0.112100
      7 CAV         -2.7950    -0.3380     0.3010 cs         1 DV8       0.396400
      8 SAG         -1.2760     0.1340     0.8640 s          1 DV8      -0.623400
      9 NBD         -3.0160    -1.5330    -0.3740 n          1 DV8      -0.259800
     10 CAO         -4.3480    -2.1490    -0.6300 c5         1 DV8       0.039000
     11 CBA         -4.0110    -3.6500    -0.8610 c5         1 DV8       0.157300
     12 OAE         -3.8370    -4.3660     0.3660 oh         1 DV8      -0.651000
     13 CAN         -2.6810    -3.5250    -1.6310 c5         1 DV8      -0.087400
     14 CBC         -1.9160    -2.4370    -0.8140 c5         1 DV8       0.043700
     15 CAU         -0.9110    -1.7780    -1.8010 cs         1 DV8       0.385400
     16 SAF         -1.2990    -0.6540    -2.9920 s          1 DV8      -0.585400
     17 NAQ          0.3410    -2.3220    -1.6420 ns         1 DV8      -0.371900
     18 CAM          1.5530    -1.9560    -2.3790 c3         1 DV8       0.129300
     19 CAX          2.4670    -1.0840    -1.5290 ca         1 DV8      -0.113300
     20 CAI          3.6620    -1.6040    -0.9970 ca         1 DV8      -0.091000
     21 CAK          4.4950    -0.7960    -0.2040 ca         1 DV8      -0.096500
     22 CAH          2.1200     0.2540    -1.2630 ca         1 DV8      -0.091000
     23 CAJ          2.9530     1.0590    -0.4690 ca         1 DV8      -0.096500
     24 CAY          4.1420     0.5360     0.0760 ca         1 DV8       0.000000
     25 CAZ          5.0200     1.3640     0.9000 cc         1 DV8      -0.185000
     26 SAS          6.7310     1.5370     0.6610 ss         1 DV8      -0.031400
     27 CAL          6.7310     2.5680     2.0700 cc         1 DV8       0.412300
     28 NAP          5.5640     2.7370     2.6880 nd         1 DV8      -0.638000
     29 CAW          4.5710     2.0310     2.0230 cd         1 DV8       0.303300
     30 CAB          3.1720     2.0480     2.5810 c3         1 DV8      -0.123400
     31 H1          -3.5920     2.9380     3.8030 hc         1 DV8       0.061700
     32 H2          -3.5520     4.1080     2.5620 hc         1 DV8       0.061700
     33 H3          -5.0560     3.9820     3.5670 hc         1 DV8       0.061700
     34 H4          -2.8120     1.8850     1.7030 hn         1 DV8       0.349500
     35 H5          -4.8520     0.0330     0.7770 h1         1 DV8       0.079700
     36 H6          -3.5300     1.9120    -1.2730 hc         1 DV8       0.057700
     37 H7          -4.5600     0.5330    -1.6890 hc         1 DV8       0.057700
     38 H8          -5.2480     1.9150    -0.8240 hc         1 DV8       0.057700
     39 H9          -5.0410    -2.0260     0.2130 h1         1 DV8       0.081200
     40 H10         -4.8140    -1.7160    -1.5250 h1         1 DV8       0.081200
     41 H11         -4.7800    -4.1400    -1.4750 h1         1 DV8       0.062700
     42 H12         -4.7320    -4.5100     0.7480 ho         1 DV8       0.453000
     43 H13         -2.1320    -4.4730    -1.6860 hc         1 DV8       0.080200
     44 H14         -2.8720    -3.2070    -2.6630 hc         1 DV8       0.080200
     45 H15         -1.3930    -2.8580     0.0550 h1         1 DV8       0.101700
     46 H16          0.4490    -3.0120    -0.9080 hn         1 DV8       0.320500
     47 H17          2.0770    -2.8770    -2.6680 h1         1 DV8       0.079700
     48 H18          1.2930    -1.4260    -3.3040 h1         1 DV8       0.079700
     49 H19          3.9480    -2.6360    -1.1940 ha         1 DV8       0.127500
     50 H20          5.4140    -1.2110     0.2040 ha         1 DV8       0.122000
     51 H21          1.2000     0.6700    -1.6690 ha         1 DV8       0.127500
     52 H22          2.6750     2.0940    -0.2830 ha         1 DV8       0.122000
     53 H23          7.6630     3.0140     2.3910 h5         1 DV8       0.052100
     54 H24          2.5620     2.8090     2.0820 hc         1 DV8       0.053033
     55 H25          2.6800     1.0780     2.4500 hc         1 DV8       0.053033
     56 H26          3.1730     2.2720     3.6540 hc         1 DV8       0.053033
@<TRIPOS>BOND
     1     1     2 1   
     2     1    31 1   
     3     1    32 1   
     4     1    33 1   
     5     2     3 2   
     6     2     4 1   
     7     4     5 1   
     8     4    34 1   
     9     5     6 1   
    10     5     7 1   
    11     5    35 1   
    12     6    36 1   
    13     6    37 1   
    14     6    38 1   
    15     7     8 2   
    16     7     9 1   
    17     9    10 1   
    18     9    14 1   
    19    10    11 1   
    20    10    39 1   
    21    10    40 1   
    22    11    12 1   
    23    11    13 1   
    24    11    41 1   
    25    12    42 1   
    26    13    14 1   
    27    13    43 1   
    28    13    44 1   
    29    14    15 1   
    30    14    45 1   
    31    15    16 2   
    32    15    17 1   
    33    17    18 1   
    34    17    46 1   
    35    18    19 1   
    36    18    47 1   
    37    18    48 1   
    38    19    20 ar  
    39    19    22 ar  
    40    20    21 ar  
    41    20    49 1   
    42    21    24 ar  
    43    21    50 1   
    44    22    23 ar  
    45    22    51 1   
    46    23    24 ar  
    47    23    52 1   
    48    24    25 1   
    49    25    26 1   
    50    25    29 2   
    51    26    27 1   
    52    27    28 2   
    53    27    53 1   
    54    28    29 1   
    55    29    30 1   
    56    30    54 1   
    57    30    55 1   
    58    30    56 1   
@<TRIPOS>SUBSTRUCTURE
     1 DV8         1 TEMP              0 ****  ****    0 ROOT
