@<TRIPOS>MOLECULE
DV8
   56    58     1     0     0
SMALL
abcg2


@<TRIPOS>ATOM
      1 CAA         -4.8790     2.7410     3.3140 c3         1 DV8      -0.176100
      2 CAT         -5.1070     1.9660     2.0410 c          1 DV8       0.605100
      3 OAD         -6.2230     1.8430     1.5510 o          1 DV8      -0.623100
      4 NAR         -4.0050     1.4260     1.4960 ns         1 DV8      -0.504900
      5 CBB         -4.0230     0.6710     0.2700 c3         1 DV8       0.071700
      6 CAC         -3.8330     1.5690    -0.9570 c3         1 DV8      -0.112100
      7 CAV         -2.9220    -0.3760     0.2680 cs         1 DV8       0.396400
      8 SAG         -1.4900    -0.1010     1.0760 s          1 DV8      -0.623400
      9 NBD         -3.1180    -1.4540    -0.4700 n          1 DV8      -0.259800
     10 CAO         -4.3440    -1.8640    -1.1520 c5         1 DV8       0.039000
     11 CBA         -4.2410    -3.3830    -1.1340 c5         1 DV8       0.157300
     12 OAE         -4.5200    -3.9140     0.1380 oh         1 DV8      -0.651000
     13 CAN         -2.7650    -3.5900    -1.4220 c5         1 DV8      -0.087400
     14 CBC         -2.0700    -2.4450    -0.6650 c5         1 DV8       0.043700
     15 CAU         -0.9140    -1.9000    -1.4880 cs         1 DV8       0.385400
     16 SAF         -1.1900    -0.8590    -2.7510 s          1 DV8      -0.585400
     17 NAQ          0.2570    -2.4190    -1.1700 ns         1 DV8      -0.371900
     18 CAM          1.4970    -2.2090    -1.8800 c3         1 DV8       0.129300
     19 CAX          2.4210    -1.2360    -1.1950 ca         1 DV8      -0.113300
     20 CAI          3.7910    -1.4730    -1.1890 ca         1 DV8      -0.091000
     21 CAK          4.6670    -0.5730    -0.6040 ca         1 DV8      -0.096500
     22 CAH          1.9430    -0.0730    -0.5990 ca         1 DV8      -0.091000
     23 CAJ          2.8160     0.8310    -0.0160 ca         1 DV8      -0.096500
     24 CAY          4.1920     0.5940    -0.0040 ca         1 DV8       0.000000
     25 CAZ          5.1150     1.5480     0.6130 cc         1 DV8      -0.185000
     26 SAS          6.5970     1.9710    -0.1660 ss         1 DV8      -0.031400
     27 CAL          6.9700     3.0100     1.1410 cc         1 DV8       0.412300
     28 NAP          6.0780     3.0480     2.0750 nd         1 DV8      -0.638000
     29 CAW          5.0190     2.2270     1.7990 cd         1 DV8       0.303300
     30 CAB          3.9070     2.1280     2.7910 c3         1 DV8      -0.123400
     31 H1          -5.4920     2.3170     4.1100 hc         1 DV8       0.061700
     32 H2          -3.8410     2.7440     3.6410 hc         1 DV8       0.061700
     33 H3          -5.1990     3.7730     3.1720 hc         1 DV8       0.061700
     34 H4          -3.1000     1.5810     1.9200 hn         1 DV8       0.349500
     35 H5          -5.0000     0.1930     0.2080 h1         1 DV8       0.079700
     36 H6          -2.8820     2.0970    -0.8950 hc         1 DV8       0.057700
     37 H7          -3.8360     0.9910    -1.8810 hc         1 DV8       0.057700
     38 H8          -4.6400     2.2990    -1.0050 hc         1 DV8       0.057700
     39 H9          -5.2380    -1.4990    -0.6530 h1         1 DV8       0.081200
     40 H10         -4.3430    -1.4960    -2.1810 h1         1 DV8       0.081200
     41 H11         -4.8730    -3.8240    -1.9120 h1         1 DV8       0.062700
     42 H12         -5.4490    -3.7610     0.3400 ho         1 DV8       0.453000
     43 H13         -2.3980    -4.5660    -1.1060 hc         1 DV8       0.080200
     44 H14         -2.5970    -3.4930    -2.4950 hc         1 DV8       0.080200
     45 H15         -1.7090    -2.7760     0.3130 h1         1 DV8       0.101700
     46 H16          0.3070    -3.0070    -0.3500 hn         1 DV8       0.320500
     47 H17          1.9890    -3.1760    -1.9890 h1         1 DV8       0.079700
     48 H18          1.2490    -1.8530    -2.8800 h1         1 DV8       0.079700
     49 H19          4.1840    -2.3780    -1.6390 ha         1 DV8       0.127500
     50 H20          5.7270    -0.7950    -0.5970 ha         1 DV8       0.122000
     51 H21          0.8800     0.1390    -0.5890 ha         1 DV8       0.127500
     52 H22          2.4220     1.7430     0.4140 ha         1 DV8       0.122000
     53 H23          7.8900     3.5780     1.1590 h5         1 DV8       0.052100
     54 H24          3.1840     2.9360     2.6610 hc         1 DV8       0.053033
     55 H25          3.3680     1.1870     2.7070 hc         1 DV8       0.053033
     56 H26          4.3020     2.2050     3.8030 hc         1 DV8       0.053033
@<TRIPOS>BOND
     1     1     2 1   
     2     1    31 1   
     3     1    32 1   
     4     1    33 1   
     5     2     3 2   
     6     2     4 1   
     7     4     5 1   
     8     4    34 1   
     9     5     6 1   
    10     5     7 1   
    11     5    35 1   
    12     6    36 1   
    13     6    37 1   
    14     6    38 1   
    15     7     8 2   
    16     7     9 1   
    17     9    10 1   
    18     9    14 1   
    19    10    11 1   
    20    10    39 1   
    21    10    40 1   
    22    11    12 1   
    23    11    13 1   
    24    11    41 1   
    25    12    42 1   
    26    13    14 1   
    27    13    43 1   
    28    13    44 1   
    29    14    15 1   
    30    14    45 1   
    31    15    16 2   
    32    15    17 1   
    33    17    18 1   
    34    17    46 1   
    35    18    19 1   
    36    18    47 1   
    37    18    48 1   
    38    19    20 ar  
    39    19    22 ar  
    40    20    21 ar  
    41    20    49 1   
    42    21    24 ar  
    43    21    50 1   
    44    22    23 ar  
    45    22    51 1   
    46    23    24 ar  
    47    23    52 1   
    48    24    25 1   
    49    25    26 1   
    50    25    29 2   
    51    26    27 1   
    52    27    28 2   
    53    27    53 1   
    54    28    29 1   
    55    29    30 1   
    56    30    54 1   
    57    30    55 1   
    58    30    56 1   
@<TRIPOS>SUBSTRUCTURE
     1 DV8         1 TEMP              0 ****  ****    0 ROOT
