@<TRIPOS>MOLECULE
DV9
   23    22     1     0     0
SMALL
No Charge or Current Charge


@<TRIPOS>ATOM
      1 CA           9.4020    -6.2360   -33.2250 c3         1 DV9       0.012500
      2 C            8.5200    -7.5210   -32.8920 c          1 DV9       0.918600
      3 CB           9.4090    -5.1820   -32.0780 c3         1 DV9      -0.022400
      4 CG           9.9900    -5.6670   -30.7220 c3         1 DV9      -0.180400
      5 CD          11.5240    -5.8830   -30.6500 c          1 DV9       0.571100
      6 C45         12.1280    -6.2440   -29.2660 c3         1 DV9       0.218400
      7 F01         13.3490    -5.6520   -29.0750 f          1 DV9      -0.288800
      8 F02         11.3460    -5.8170   -28.2260 f          1 DV9      -0.288800
      9 N            9.1050    -5.5400   -34.5390 n8         1 DV9      -0.885800
     10 O            8.8970    -8.6070   -33.3220 o          1 DV9      -0.847800
     11 OE1         12.2270    -5.6950   -31.6440 o          1 DV9      -0.585100
     12 O14         13.2280    -8.5980   -30.3350 o          1 DV9      -0.899500
     13 O15         10.9420    -8.7650   -29.5360 o          1 DV9      -0.899500
     14 O16         12.7740    -8.6290   -27.9580 o          1 DV9      -0.899500
     15 P01         12.2740    -8.1400   -29.2800 p5         1 DV9       1.103700
     16 H40         10.4270    -6.6200   -33.3100 h1         1 DV9       0.075700
     17 H42          9.9750    -4.2960   -32.3950 hc         1 DV9       0.000700
     18 H41          8.3820    -4.8350   -31.9090 hc         1 DV9       0.000700
     19 H43          9.7290    -4.9560   -29.9300 hc         1 DV9       0.073200
     20 H44          9.4910    -6.5650   -30.3450 hc         1 DV9       0.073200
     21 H2           9.7940    -4.7980   -34.6930 hn         1 DV9       0.298300
     22 H3           9.2500    -6.1990   -35.3110 hn         1 DV9       0.298300
     23 OXT          7.4590    -7.3950   -32.2870 o          1 DV9      -0.847800
@<TRIPOS>BOND
     1     1     2 1   
     2     1     3 1   
     3     1     9 1   
     4     1    16 1   
     5     2    10 1   
     6     2    23 1   
     7     3     4 1   
     8     3    17 1   
     9     3    18 1   
    10     4     5 1   
    11     4    19 1   
    12     4    20 1   
    13     5     6 1   
    14     5    11 2   
    15     6     7 1   
    16     6     8 1   
    17     6    15 1   
    18     9    21 1   
    19     9    22 1   
    20    12    15 1   
    21    13    15 1   
    22    14    15 1   
@<TRIPOS>SUBSTRUCTURE
     1 DV9         1 TEMP              0 ****  ****    0 ROOT
