@<TRIPOS>MOLECULE
DV9
   23    22     1     0     0
SMALL
bcc


@<TRIPOS>ATOM
      1 CA           9.3730    -6.3430   -33.0400 c3         1 DV9       0.012500
      2 C            8.0930    -7.1910   -32.8420 c          1 DV9       0.918600
      3 CB           9.4210    -5.2240   -31.9840 c3         1 DV9      -0.022400
      4 CG           9.9440    -5.6710   -30.6280 c3         1 DV9      -0.180400
      5 CD          11.4460    -5.7160   -30.5330 c          1 DV9       0.571100
      6 C45         12.0550    -6.4120   -29.3340 c3         1 DV9       0.218400
      7 F01         13.0860    -5.6340   -28.8590 f          1 DV9      -0.288800
      8 F02         11.1230    -6.4210   -28.3160 f          1 DV9      -0.288800
      9 N            9.4050    -5.7250   -34.3590 n8         1 DV9      -0.885800
     10 O            8.1290    -8.0260   -31.9120 o          1 DV9      -0.847800
     11 OE1         12.1800    -5.2350   -31.3680 o          1 DV9      -0.585100
     12 O14         13.8900    -7.9460   -30.5800 o          1 DV9      -0.899500
     13 O15         11.4270    -8.6980   -30.5390 o          1 DV9      -0.899500
     14 O16         12.8510    -8.8200   -28.3910 o          1 DV9      -0.899500
     15 P01         12.6330    -8.1830   -29.7570 p5         1 DV9       1.103700
     16 H40         10.2330    -7.0090   -32.8680 h1         1 DV9       0.075700
     17 H42         10.0460    -4.4090   -32.3600 hc         1 DV9       0.000700
     18 H41          8.4210    -4.7980   -31.8690 hc         1 DV9       0.000700
     19 H43          9.6060    -4.9840   -29.8440 hc         1 DV9       0.073200
     20 H44          9.5370    -6.6460   -30.3620 hc         1 DV9       0.073200
     21 H2          10.3340    -5.3530   -34.5200 hn         1 DV9       0.298300
     22 H3           9.2630    -6.4300   -35.0710 hn         1 DV9       0.298300
     23 OXT          7.1250    -6.9640   -33.5930 o          1 DV9      -0.847800
@<TRIPOS>BOND
     1     1     2 1   
     2     1     3 1   
     3     1     9 1   
     4     1    16 1   
     5     2    10 1   
     6     2    23 1   
     7     3     4 1   
     8     3    17 1   
     9     3    18 1   
    10     4     5 1   
    11     4    19 1   
    12     4    20 1   
    13     5     6 1   
    14     5    11 2   
    15     6     7 1   
    16     6     8 1   
    17     6    15 1   
    18     9    21 1   
    19     9    22 1   
    20    12    15 1   
    21    13    15 1   
    22    14    15 1   
@<TRIPOS>SUBSTRUCTURE
     1 DV9         1 TEMP              0 ****  ****    0 ROOT
