@<TRIPOS>MOLECULE
DVA
   18    17     1     0     0
SMALL
bcc


@<TRIPOS>ATOM
      1 N           -1.8710    -0.2950     0.2320 n8         1 DVA      -0.893800
      2 CA          -0.4210    -0.4460     0.1110 c3         1 DVA       0.021500
      3 CB           0.2780     0.3980     1.1890 c3         1 DVA      -0.039700
      4 CG1         -0.1840     0.0030     2.5890 c3         1 DVA      -0.075600
      5 CG2          1.7990     0.3000     1.1000 c3         1 DVA      -0.075600
      6 C            0.1080    -0.0680    -1.2900 c          1 DVA       0.897600
      7 O           -0.2990     1.0200    -1.7540 o          1 DVA      -0.842800
      8 OXT          0.8980    -0.8570    -1.8460 o          1 DVA      -0.842800
      9 H           -2.3200    -0.9390    -0.4090 hn         1 DVA       0.325300
     10 H2          -2.1090     0.6270    -0.1180 hn         1 DVA       0.325300
     11 HA          -0.1810    -1.4980     0.3060 h1         1 DVA       0.037700
     12 HB          -0.0050     1.4440     1.0160 hc         1 DVA       0.046700
     13 HG11         0.2960     0.6230     3.3490 hc         1 DVA       0.018867
     14 HG12        -1.2620     0.1050     2.6980 hc         1 DVA       0.018867
     15 HG13         0.0770    -1.0380     2.8000 hc         1 DVA       0.018867
     16 HG21         2.1310    -0.7350     1.2200 hc         1 DVA       0.018867
     17 HG22         2.1900     0.6630     0.1500 hc         1 DVA       0.018867
     18 HG23         2.2670     0.8880     1.8910 hc         1 DVA       0.018867
@<TRIPOS>BOND
     1     1     2 1   
     2     1     9 1   
     3     1    10 1   
     4     2     3 1   
     5     2     6 1   
     6     2    11 1   
     7     3     4 1   
     8     3     5 1   
     9     3    12 1   
    10     4    13 1   
    11     4    14 1   
    12     4    15 1   
    13     5    16 1   
    14     5    17 1   
    15     5    18 1   
    16     6     7 1   
    17     6     8 1   
@<TRIPOS>SUBSTRUCTURE
     1 DVA         1 TEMP              0 ****  ****    0 ROOT
