@<TRIPOS>MOLECULE
DVA
   18    17     1     0     0
SMALL
No Charge or Current Charge


@<TRIPOS>ATOM
      1 N           -1.9380    -0.3190     0.2080 n8         1 DVA      -0.893800
      2 CA          -0.4310    -0.4220     0.0930 c3         1 DVA       0.021500
      3 CB           0.2730     0.4080     1.2200 c3         1 DVA      -0.039700
      4 CG1         -0.1710    -0.0190     2.6450 c3         1 DVA      -0.075600
      5 CG2          1.8190     0.3520     1.1180 c3         1 DVA      -0.075600
      6 C            0.1740    -0.1040    -1.3470 c          1 DVA       0.897600
      7 O           -0.0730     0.9810    -1.8660 o          1 DVA      -0.842800
      8 OXT          0.7450    -1.0030    -1.9570 o          1 DVA      -0.842800
      9 H           -2.3710    -0.9350    -0.4880 hn         1 DVA       0.325300
     10 H2          -2.2230     0.6230    -0.0820 hn         1 DVA       0.325300
     11 HA          -0.1880    -1.4750     0.2870 h1         1 DVA       0.037700
     12 HB          -0.0160     1.4580     1.0900 hc         1 DVA       0.046700
     13 HG11         0.3510     0.5720     3.4060 hc         1 DVA       0.018867
     14 HG12        -1.2470     0.1340     2.7930 hc         1 DVA       0.018867
     15 HG13         0.0540    -1.0780     2.8220 hc         1 DVA       0.018867
     16 HG21         2.1760    -0.6840     1.1750 hc         1 DVA       0.018867
     17 HG22         2.1750     0.7890     0.1780 hc         1 DVA       0.018867
     18 HG23         2.2820     0.9170     1.9360 hc         1 DVA       0.018867
@<TRIPOS>BOND
     1     1     2 1   
     2     1     9 1   
     3     1    10 1   
     4     2     3 1   
     5     2     6 1   
     6     2    11 1   
     7     3     4 1   
     8     3     5 1   
     9     3    12 1   
    10     4    13 1   
    11     4    14 1   
    12     4    15 1   
    13     5    16 1   
    14     5    17 1   
    15     5    18 1   
    16     6     7 1   
    17     6     8 1   
@<TRIPOS>SUBSTRUCTURE
     1 DVA         1 TEMP              0 ****  ****    0 ROOT
