@<TRIPOS>MOLECULE
DVC
   27    27     1     0     0
SMALL
No Charge or Current Charge


@<TRIPOS>ATOM
      1 C1          38.3610    -1.3200    19.3600 c6         1 DVC       0.396300
      2 O1          37.2820    -0.7470    20.0920 oh         1 DVC      -0.690000
      3 C2          38.2310    -2.8640    19.2440 c6         1 DVC      -0.143400
      4 C3          37.1060    -3.3460    18.2680 c6         1 DVC       0.220200
      5 N3          37.3290    -4.7920    18.0200 n8         1 DVC      -0.999200
      6 C4          37.2230    -2.5440    16.8860 c6         1 DVC       0.333000
      7 O4          38.4120    -2.9450    16.2120 oh         1 DVC      -0.735000
      8 C5          37.2580    -0.9990    17.2040 c6         1 DVC       0.115300
      9 O5          38.3930    -0.7080    18.0550 os         1 DVC      -0.438000
     10 C6          37.4030    -0.0810    15.9560 c3         1 DVC      -0.100100
     11 C3M         35.6860    -3.2300    18.9150 c3         1 DVC      -0.083100
     12 O41         36.1620    -2.8730    16.0010 oh         1 DVC      -0.735000
     13 H1          39.3070    -1.0880    19.8770 h2         1 DVC       0.071700
     14 HO1         37.4030    -1.0410    21.0200 ho         1 DVC       0.459000
     15 H2          39.2000    -3.2490    18.9000 hc         1 DVC       0.067200
     16 H2A         38.0830    -3.3000    20.2410 hc         1 DVC       0.067200
     17 HN3         36.4480    -5.1720    17.6630 hn         1 DVC       0.411500
     18 HN3A        37.9170    -4.8030    17.1760 hn         1 DVC       0.411500
     19 HO4         38.9620    -2.1330    16.1540 ho         1 DVC       0.511000
     20 H5          36.3340    -0.7030    17.7190 h1         1 DVC       0.070700
     21 H6          37.4570     0.9720    16.2570 hc         1 DVC       0.046700
     22 H6A         38.3070    -0.3040    15.3780 hc         1 DVC       0.046700
     23 H6B         36.5410    -0.1760    15.2850 hc         1 DVC       0.046700
     24 H3M         34.9180    -3.6990    18.2890 hc         1 DVC       0.046033
     25 H3MA        35.6520    -3.7260    19.8930 hc         1 DVC       0.046033
     26 H3MB        35.3740    -2.1930    19.0680 hc         1 DVC       0.046033
     27 HO41        36.2500    -2.2620    15.2400 ho         1 DVC       0.511000
@<TRIPOS>BOND
     1     1     2 1   
     2     1     3 1   
     3     1     9 1   
     4     1    13 1   
     5     2    14 1   
     6     3     4 1   
     7     3    15 1   
     8     3    16 1   
     9     4     5 1   
    10     4     6 1   
    11     4    11 1   
    12     5    17 1   
    13     5    18 1   
    14     6     7 1   
    15     6     8 1   
    16     6    12 1   
    17     7    19 1   
    18     8     9 1   
    19     8    10 1   
    20     8    20 1   
    21    10    21 1   
    22    10    22 1   
    23    10    23 1   
    24    11    24 1   
    25    11    25 1   
    26    11    26 1   
    27    12    27 1   
@<TRIPOS>SUBSTRUCTURE
     1 DVC         1 TEMP              0 ****  ****    0 ROOT
