@<TRIPOS>MOLECULE
DVC
   27    27     1     0     0
SMALL
abcg2


@<TRIPOS>ATOM
      1 C1          38.3550    -1.3310    19.3400 c6         1 DVC       0.396300
      2 O1          37.3430    -0.7390    20.1140 oh         1 DVC      -0.690000
      3 C2          38.2200    -2.8430    19.1980 c6         1 DVC      -0.143400
      4 C3          37.1010    -3.3130    18.2590 c6         1 DVC       0.220200
      5 N3          37.2830    -4.7460    18.0640 n8         1 DVC      -0.999200
      6 C4          37.2310    -2.4980    16.9390 c6         1 DVC       0.333000
      7 O4          38.4150    -2.9260    16.3320 oh         1 DVC      -0.735000
      8 C5          37.2810    -0.9830    17.2480 c6         1 DVC       0.115300
      9 O5          38.3730    -0.6920    18.1030 os         1 DVC      -0.438000
     10 C6          37.4390    -0.0890    16.0280 c3         1 DVC      -0.100100
     11 C3M         35.7190    -3.1370    18.8950 c3         1 DVC      -0.083100
     12 O41         36.1110    -2.8010    16.1580 oh         1 DVC      -0.735000
     13 H1          39.3350    -1.1090    19.7820 h2         1 DVC       0.071700
     14 HO1         37.0780    -1.3460    20.8130 ho         1 DVC       0.459000
     15 H2          39.1760    -3.2160    18.8250 hc         1 DVC       0.067200
     16 H2A         38.0850    -3.2990    20.1840 hc         1 DVC       0.067200
     17 HN3         36.5660    -5.1020    17.4430 hn         1 DVC       0.411500
     18 HN3A        38.1690    -4.9290    17.6080 hn         1 DVC       0.411500
     19 HO4         38.6960    -2.3030    15.6520 ho         1 DVC       0.511000
     20 H5          36.3340    -0.7120    17.7270 h1         1 DVC       0.070700
     21 H6          37.4180     0.9560    16.3380 hc         1 DVC       0.046700
     22 H6A         38.3810    -0.2470    15.4990 hc         1 DVC       0.046700
     23 H6B         36.6200    -0.2240    15.3220 hc         1 DVC       0.046700
     24 H3M         34.9510    -3.6350    18.3040 hc         1 DVC       0.046033
     25 H3MA        35.7210    -3.5960    19.8850 hc         1 DVC       0.046033
     26 H3MB        35.4220    -2.0990    19.0140 hc         1 DVC       0.046033
     27 HO41        36.1770    -2.3690    15.2990 ho         1 DVC       0.511000
@<TRIPOS>BOND
     1     1     2 1   
     2     1     3 1   
     3     1     9 1   
     4     1    13 1   
     5     2    14 1   
     6     3     4 1   
     7     3    15 1   
     8     3    16 1   
     9     4     5 1   
    10     4     6 1   
    11     4    11 1   
    12     5    17 1   
    13     5    18 1   
    14     6     7 1   
    15     6     8 1   
    16     6    12 1   
    17     7    19 1   
    18     8     9 1   
    19     8    10 1   
    20     8    20 1   
    21    10    21 1   
    22    10    22 1   
    23    10    23 1   
    24    11    24 1   
    25    11    25 1   
    26    11    26 1   
    27    12    27 1   
@<TRIPOS>SUBSTRUCTURE
     1 DVC         1 TEMP              0 ****  ****    0 ROOT
