@<TRIPOS>MOLECULE
DVD
   63    68     1     0     0
SMALL
bcc


@<TRIPOS>ATOM
      1 C4           7.3710    -2.7320     1.3440 c6         1 DVD       0.062300
      2 C6           5.9000    -1.9110    -0.4650 cc         1 DVD      -0.071600
      3 C11          3.0810     1.2310     0.5610 cc         1 DVD       0.093800
      4 C7           4.8420    -1.0330    -0.5410 cd         1 DVD      -0.320300
      5 C8           4.6680    -0.6000     0.7840 cd         1 DVD       0.551200
      6 C12          1.7530     1.5160     0.6660 cd         1 DVD      -0.308600
      7 C13          1.1860     2.5850    -0.0800 cd         1 DVD       0.428200
      8 N2           7.8950    -3.1670    -0.9880 n3         1 DVD      -0.711600
      9 C3           7.7600    -3.7810     0.3190 c6         1 DVD       0.140800
     10 C1           8.5560    -4.0330    -1.9380 c3         1 DVD       0.152100
     11 C17          3.9090     2.0920    -0.2850 c          1 DVD       0.667700
     12 C19         -0.2440     2.9410     0.0640 ca         1 DVD      -0.077900
     13 C20         -0.5640     4.2730     0.3230 ca         1 DVD      -0.117000
     14 C21         -1.8790     4.6480     0.5350 ca         1 DVD      -0.107000
     15 C22         -2.8910     3.7020     0.5130 ca         1 DVD      -0.124000
     16 C23         -2.5820     2.3770     0.2330 ca         1 DVD       0.080600
     17 C24         -1.2610     1.9860    -0.0290 ca         1 DVD      -0.106300
     18 C25         -1.0070     0.5620    -0.4380 c3         1 DVD       0.174700
     19 C28         -4.8160     1.4860    -0.2810 c          1 DVD       0.711300
     20 C30         -5.6760     0.2940    -0.1130 cc         1 DVD      -0.141600
     21 C31         -6.8260     0.0820    -0.7980 cd         1 DVD      -0.045200
     22 C32         -7.4580    -1.1510    -0.4550 ca         1 DVD      -0.093800
     23 C33         -8.6460    -1.7000    -0.9560 ca         1 DVD      -0.077000
     24 C34         -9.0830    -2.9150    -0.4740 ca         1 DVD      -0.135000
     25 C35         -8.3520    -3.6020     0.5070 ca         1 DVD      -0.108000
     26 C36         -7.1780    -3.0840     1.0180 ca         1 DVD      -0.105000
     27 C37         -6.7390    -1.8570     0.5260 ca         1 DVD      -0.020100
     28 C39          6.6030    -2.7390    -1.4860 c6         1 DVD       0.226100
     29 N10          3.6930     0.2580     1.3000 nu         1 DVD      -0.704700
     30 N14          1.8950     3.3240    -0.8740 nc         1 DVD      -0.437300
     31 N15          3.1920     3.0440    -0.9510 ns         1 DVD      -0.289900
     32 N27         -3.5680     1.3770     0.2420 ns         1 DVD      -0.485100
     33 N5           6.2550    -1.9720     0.8280 na         1 DVD       0.122400
     34 N9           5.5310    -1.1650     1.6050 nc         1 DVD      -0.531800
     35 O18          5.1250     2.0160    -0.3910 o          1 DVD      -0.599500
     36 O26         -1.2530    -0.2780     0.6780 oh         1 DVD      -0.609800
     37 O29         -5.2270     2.4740    -0.8610 o          1 DVD      -0.574100
     38 S38         -5.3180    -0.9950     1.0050 ss         1 DVD      -0.064500
     39 H1           7.0800    -3.2000     2.2840 h1         1 DVD       0.072200
     40 H2           8.2100    -2.0610     1.5400 h1         1 DVD       0.072200
     41 H3           4.2790    -0.7550    -1.4170 ha         1 DVD       0.165000
     42 H4           1.1190     0.9300     1.3200 ha         1 DVD       0.158000
     43 H6           8.7190    -4.2080     0.6160 h1         1 DVD       0.046700
     44 H7           7.0250    -4.6030     0.3190 h1         1 DVD       0.046700
     45 H8           8.6910    -3.5080    -2.8860 h1         1 DVD       0.036033
     46 H9           9.5420    -4.3080    -1.5640 h1         1 DVD       0.036033
     47 H10          8.0010    -4.9600    -2.1460 h1         1 DVD       0.036033
     48 H11          0.2250     5.0090     0.3850 ha         1 DVD       0.145000
     49 H12         -2.1190     5.6810     0.7490 ha         1 DVD       0.138000
     50 H13         -3.9070     3.9970     0.7320 ha         1 DVD       0.155000
     51 H14         -1.6780     0.3120    -1.2700 h1         1 DVD       0.037700
     52 H15          0.0100     0.4380    -0.8170 h1         1 DVD       0.037700
     53 H17         -7.2180     0.7700    -1.5340 ha         1 DVD       0.174000
     54 H18         -9.2110    -1.1690    -1.7110 ha         1 DVD       0.139000
     55 H19         -9.9990    -3.3470    -0.8530 ha         1 DVD       0.136000
     56 H20         -8.7120    -4.5550     0.8710 ha         1 DVD       0.134000
     57 H21         -6.6170    -3.6170     1.7740 ha         1 DVD       0.142000
     58 H22          5.9630    -3.5980    -1.7560 h1         1 DVD       0.053700
     59 H23          6.7380    -2.1550    -2.3990 h1         1 DVD       0.053700
     60 H24          3.1220    -0.1440     2.0300 hn         1 DVD       0.437800
     61 H16          3.7150     3.6710    -1.5480 hn         1 DVD       0.352500
     62 H25         -3.2460     0.4740     0.5660 hn         1 DVD       0.341500
     63 H26         -1.2160    -1.1930     0.3790 ho         1 DVD       0.407000
@<TRIPOS>BOND
     1     1     9 1   
     2     1    33 1   
     3     1    39 1   
     4     1    40 1   
     5     2     4 2   
     6     2    28 1   
     7     2    33 1   
     8     3     6 2   
     9     3    11 1   
    10     3    29 1   
    11     4     5 1   
    12     4    41 1   
    13     5    29 1   
    14     5    34 2   
    15     6     7 1   
    16     6    42 1   
    17     7    12 1   
    18     7    30 2   
    19     8     9 1   
    20     8    10 1   
    21     8    28 1   
    22     9    43 1   
    23     9    44 1   
    24    10    45 1   
    25    10    46 1   
    26    10    47 1   
    27    11    31 1   
    28    11    35 2   
    29    12    13 ar  
    30    12    17 ar  
    31    13    14 ar  
    32    13    48 1   
    33    14    15 ar  
    34    14    49 1   
    35    15    16 ar  
    36    15    50 1   
    37    16    17 ar  
    38    16    32 1   
    39    17    18 1   
    40    18    36 1   
    41    18    51 1   
    42    18    52 1   
    43    19    20 1   
    44    19    32 1   
    45    19    37 2   
    46    20    21 2   
    47    20    38 1   
    48    21    22 1   
    49    21    53 1   
    50    22    23 ar  
    51    22    27 ar  
    52    23    24 ar  
    53    23    54 1   
    54    24    25 ar  
    55    24    55 1   
    56    25    26 ar  
    57    25    56 1   
    58    26    27 ar  
    59    26    57 1   
    60    27    38 1   
    61    28    58 1   
    62    28    59 1   
    63    29    60 1   
    64    30    31 1   
    65    31    61 1   
    66    32    62 1   
    67    33    34 1   
    68    36    63 1   
@<TRIPOS>SUBSTRUCTURE
     1 DVD         1 TEMP              0 ****  ****    0 ROOT
