@<TRIPOS>MOLECULE
DVD
   63    68     1     0     0
SMALL
No Charge or Current Charge


@<TRIPOS>ATOM
      1 C4           7.0330    -3.0030     1.6110 c6         1 DVD       0.091600
      2 C6           6.0460    -1.8670    -0.3900 cc         1 DVD      -0.122300
      3 C11          3.1410     1.4130     0.2880 cc         1 DVD       0.093800
      4 C7           5.1160    -0.8850    -0.5650 cd         1 DVD      -0.237000
      5 C8           4.7160    -0.5020     0.7260 cd         1 DVD       0.485900
      6 C12          1.8100     1.7040     0.5310 cd         1 DVD      -0.358600
      7 C13          1.1440     2.7370    -0.2290 cd         1 DVD       0.428200
      8 N2           7.9380    -3.3950    -0.7300 n3         1 DVD      -0.711600
      9 C3           7.5210    -4.0390     0.5570 c6         1 DVD       0.140800
     10 C1           8.6330    -4.3290    -1.6420 c3         1 DVD       0.152100
     11 C17          3.9240     2.2140    -0.7350 c          1 DVD       0.525200
     12 C19         -0.2720     3.0870     0.0040 ca         1 DVD      -0.077900
     13 C20         -0.5850     4.4220     0.3310 ca         1 DVD      -0.099000
     14 C21         -1.9090     4.8070     0.5760 ca         1 DVD      -0.089000
     15 C22         -2.9410     3.8640     0.4900 ca         1 DVD      -0.106000
     16 C23         -2.6620     2.5270     0.1350 ca         1 DVD      -0.012000
     17 C24         -1.3210     2.1320    -0.1170 ca         1 DVD      -0.106300
     18 C25         -1.0300     0.6910    -0.5640 c3         1 DVD       0.197900
     19 C28         -5.0690     1.6460    -0.0580 c          1 DVD       0.644300
     20 C30         -5.7470     0.3280    -0.0410 cc         1 DVD      -0.141600
     21 C31         -7.1170     0.1610    -0.1480 cd         1 DVD      -0.095200
     22 C32         -7.5550    -1.2130    -0.1090 ca         1 DVD      -0.093800
     23 C33         -8.8710    -1.6930    -0.1940 ca         1 DVD      -0.059000
     24 C34         -9.0840    -3.0850    -0.1350 ca         1 DVD      -0.117000
     25 C35         -7.9890    -3.9660     0.0080 ca         1 DVD      -0.090000
     26 C36         -6.6750    -3.4590     0.0920 ca         1 DVD      -0.087000
     27 C37         -6.4820    -2.0710     0.0310 ca         1 DVD      -0.147000
     28 C39          6.8040    -2.6880    -1.4020 c6         1 DVD       0.226100
     29 N10          3.7590     0.4110     1.0320 nu         1 DVD      -0.759900
     30 N14          1.8130     3.4460    -1.1390 nc         1 DVD      -0.437300
     31 N15          3.1390     3.1650    -1.3550 ns         1 DVD      -0.222900
     32 N27         -3.6900     1.5460     0.0550 ns         1 DVD      -0.159000
     33 N5           6.1230    -2.0280     0.9860 na         1 DVD       0.143800
     34 N9           5.2820    -1.1830     1.6910 nc         1 DVD      -0.531800
     35 O18          5.1140     2.0980    -1.0010 o          1 DVD      -0.524000
     36 O26         -1.1200    -0.2050     0.5500 oh         1 DVD      -0.672000
     37 O29         -5.6740     2.7060    -0.1780 o          1 DVD      -0.574100
     38 S38         -4.9020    -1.2410     0.1190 ss         1 DVD       0.062400
     39 H1           6.5240    -3.5120     2.4390 h1         1 DVD       0.072200
     40 H2           7.8960    -2.4590     2.0170 h1         1 DVD       0.072200
     41 H3           4.7480    -0.4950    -1.5060 ha         1 DVD       0.147000
     42 H4           1.2470     1.1580     1.2790 ha         1 DVD       0.208000
     43 H6           8.3550    -4.6080     0.9930 h1         1 DVD       0.046700
     44 H7           6.7100    -4.7590     0.3680 h1         1 DVD       0.046700
     45 H8           8.9810    -3.8060    -2.5430 h1         1 DVD       0.036033
     46 H9           9.5090    -4.7730    -1.1500 h1         1 DVD       0.036033
     47 H10          7.9650    -5.1440    -1.9540 h1         1 DVD       0.036033
     48 H11          0.2080     5.1630     0.4120 ha         1 DVD       0.127000
     49 H12         -2.1340     5.8370     0.8450 ha         1 DVD       0.120000
     50 H13         -3.9520     4.1890     0.7140 ha         1 DVD       0.137000
     51 H14         -1.7530     0.4030    -1.3400 h1         1 DVD       0.037700
     52 H15         -0.0410     0.6210    -1.0340 h1         1 DVD       0.037700
     53 H17         -7.8040     0.9980    -0.2540 ha         1 DVD       0.224000
     54 H18         -9.7080    -1.0070    -0.3040 ha         1 DVD       0.121000
     55 H19        -10.0950    -3.4810    -0.1990 ha         1 DVD       0.118000
     56 H20         -8.1590    -5.0390     0.0530 ha         1 DVD       0.116000
     57 H21         -5.8290    -4.1340     0.2010 ha         1 DVD       0.124000
     58 H22          6.1190    -3.4160    -1.8630 h1         1 DVD       0.053700
     59 H23          7.1790    -2.0430    -2.2100 h1         1 DVD       0.053700
     60 H24          3.3910     0.2700     1.9700 hn         1 DVD       0.493000
     61 H16          3.6220     3.7280    -2.0500 hn         1 DVD       0.352500
     62 H25         -3.3480     0.5960     0.1180 hn         1 DVD       0.175000
     63 H26         -0.8330    -1.0880     0.2290 ho         1 DVD       0.446000
@<TRIPOS>BOND
     1     1     9 1   
     2     1    33 1   
     3     1    39 1   
     4     1    40 1   
     5     2     4 2   
     6     2    28 1   
     7     2    33 1   
     8     3     6 2   
     9     3    11 1   
    10     3    29 1   
    11     4     5 1   
    12     4    41 1   
    13     5    29 1   
    14     5    34 2   
    15     6     7 1   
    16     6    42 1   
    17     7    12 1   
    18     7    30 2   
    19     8     9 1   
    20     8    10 1   
    21     8    28 1   
    22     9    43 1   
    23     9    44 1   
    24    10    45 1   
    25    10    46 1   
    26    10    47 1   
    27    11    31 1   
    28    11    35 2   
    29    12    13 ar  
    30    12    17 ar  
    31    13    14 ar  
    32    13    48 1   
    33    14    15 ar  
    34    14    49 1   
    35    15    16 ar  
    36    15    50 1   
    37    16    17 ar  
    38    16    32 1   
    39    17    18 1   
    40    18    36 1   
    41    18    51 1   
    42    18    52 1   
    43    19    20 1   
    44    19    32 1   
    45    19    37 2   
    46    20    21 2   
    47    20    38 1   
    48    21    22 1   
    49    21    53 1   
    50    22    23 ar  
    51    22    27 ar  
    52    23    24 ar  
    53    23    54 1   
    54    24    25 ar  
    55    24    55 1   
    56    25    26 ar  
    57    25    56 1   
    58    26    27 ar  
    59    26    57 1   
    60    27    38 1   
    61    28    58 1   
    62    28    59 1   
    63    29    60 1   
    64    30    31 1   
    65    31    61 1   
    66    32    62 1   
    67    33    34 1   
    68    36    63 1   
@<TRIPOS>SUBSTRUCTURE
     1 DVD         1 TEMP              0 ****  ****    0 ROOT
