@<TRIPOS>MOLECULE
DVE
   81    84     1     0     0
SMALL
abcg2


@<TRIPOS>ATOM
      1 C3           3.6610    -0.5240     1.9700 c3         1 DVE      -0.081100
      2 C2           3.6660    -0.4720     0.4300 c6         1 DVE       0.005200
      3 C4           4.3930    -1.7120    -0.1200 c6         1 DVE      -0.063400
      4 C5           5.8810    -1.7150     0.2010 c6         1 DVE      -0.112400
      5 C6           6.5710    -0.4550    -0.2940 c6         1 DVE       0.172300
      6 O8           7.9360    -0.4380     0.0820 oh         1 DVE      -0.661000
      7 C9           5.8990     0.8080     0.2430 c6         1 DVE      -0.048700
      8 C11          6.5930     2.0530    -0.3080 c3         1 DVE      -0.084100
      9 C1           4.4010     0.7770    -0.1130 c6         1 DVE      -0.049700
     10 C15          3.6560     2.0410     0.2920 c6         1 DVE      -0.068400
     11 C14          2.2430     2.0430    -0.2740 c6         1 DVE      -0.035200
     12 C13          1.5710     0.7010    -0.2930 c2         1 DVE      -0.095400
     13 C12          2.2060    -0.4470    -0.0250 c2         1 DVE      -0.110400
     14 C21          1.4900    -1.7790    -0.0390 c6         1 DVE      -0.033200
     15 C20          0.0080    -1.7740    -0.4470 c6         1 DVE      -0.059400
     16 C18         -0.6640    -0.4640    -0.0640 c5         1 DVE      -0.028000
     17 C19         -0.6360    -0.3200     1.4670 c3         1 DVE      -0.082100
     18 C16          0.1310     0.6810    -0.7530 c5         1 DVE      -0.008800
     19 C17          0.1720     0.5630    -2.2930 c3         1 DVE      -0.079100
     20 C35         -0.7390     1.9010    -0.4250 c5         1 DVE      -0.069400
     21 C34         -2.1810     1.3630    -0.5280 c5         1 DVE      -0.076400
     22 C22         -2.1020    -0.1890    -0.5660 c5         1 DVE      -0.051700
     23 C24         -3.2860    -0.8510     0.1560 c3         1 DVE      -0.049700
     24 C33         -3.2090    -2.3760     0.1510 c3         1 DVE      -0.087100
     25 C26         -4.6000    -0.3770    -0.4810 c3         1 DVE      -0.074400
     26 C27         -5.8650    -0.8870     0.2180 c3         1 DVE      -0.040200
     27 C28         -7.1200    -0.2410    -0.3180 c2         1 DVE      -0.107400
     28 C32         -7.6670    -0.6610    -1.4570 c2         1 DVE      -0.325000
     29 C29         -7.7340     0.8930     0.4710 c3         1 DVE      -0.025500
     30 C31         -8.2840     0.3960     1.8090 c3         1 DVE      -0.084100
     31 C30         -6.7550     2.0470     0.6900 c3         1 DVE      -0.084100
     32 H1           3.1400     0.3330     2.3960 hc         1 DVE       0.034700
     33 H2           3.1430    -1.4200     2.3170 hc         1 DVE       0.034700
     34 H3           4.6620    -0.5500     2.4010 hc         1 DVE       0.034700
     35 H4           3.9490    -2.6280     0.2750 hc         1 DVE       0.042200
     36 H5           4.2600    -1.7500    -1.2080 hc         1 DVE       0.042200
     37 H6           6.0420    -1.8130     1.2780 hc         1 DVE       0.044200
     38 H7           6.3470    -2.5920    -0.2600 hc         1 DVE       0.044200
     39 H8           6.4800    -0.4280    -1.3940 h1         1 DVE       0.026700
     40 H9           8.3570    -1.2180    -0.2940 ho         1 DVE       0.440000
     41 H10          6.0050     0.8120     1.3350 hc         1 DVE       0.059700
     42 H11          6.4320     2.1450    -1.3850 hc         1 DVE       0.036033
     43 H12          6.2310     2.9670     0.1600 hc         1 DVE       0.036033
     44 H13          7.6680     2.0130    -0.1370 hc         1 DVE       0.036033
     45 H14          4.3400     0.7100    -1.2100 hc         1 DVE       0.047700
     46 H15          3.6310     2.1270     1.3810 hc         1 DVE       0.042700
     47 H16          4.1710     2.9320    -0.0690 hc         1 DVE       0.042700
     48 H17          1.6290     2.7540     0.2860 hc         1 DVE       0.045200
     49 H18          2.2630     2.4320    -1.3000 hc         1 DVE       0.045200
     50 H19          2.0170    -2.4750    -0.6970 hc         1 DVE       0.041700
     51 H20          1.5840    -2.2190     0.9610 hc         1 DVE       0.041700
     52 H21         -0.0850    -1.9370    -1.5230 hc         1 DVE       0.040700
     53 H22         -0.4760    -2.6310     0.0220 hc         1 DVE       0.040700
     54 H23         -1.2140     0.5350     1.8200 hc         1 DVE       0.034033
     55 H24         -1.0640    -1.2070     1.9390 hc         1 DVE       0.034033
     56 H25          0.3780    -0.2050     1.8490 hc         1 DVE       0.034033
     57 H26         -0.8140     0.6410    -2.7550 hc         1 DVE       0.033700
     58 H27          0.7720     1.3810    -2.6970 hc         1 DVE       0.033700
     59 H28          0.6320    -0.3640    -2.6310 hc         1 DVE       0.033700
     60 H29         -0.5360     2.2750     0.5810 hc         1 DVE       0.043200
     61 H30         -0.5600     2.7340    -1.1070 hc         1 DVE       0.043200
     62 H31         -2.7730     1.6980     0.3280 hc         1 DVE       0.039700
     63 H32         -2.6870     1.7480    -1.4150 hc         1 DVE       0.039700
     64 H33         -2.1640    -0.5180    -1.6110 hc         1 DVE       0.046700
     65 H34         -3.2890    -0.5100     1.1990 hc         1 DVE       0.046700
     66 H35         -3.1380    -2.7600    -0.8700 hc         1 DVE       0.032367
     67 H36         -2.3480    -2.7440     0.7060 hc         1 DVE       0.032367
     68 H37         -4.0900    -2.8250     0.6110 hc         1 DVE       0.032367
     69 H38         -4.6280     0.7150    -0.4820 hc         1 DVE       0.041200
     70 H39         -4.6270    -0.6800    -1.5340 hc         1 DVE       0.041200
     71 H40         -5.9460    -1.9690     0.0970 hc         1 DVE       0.043700
     72 H41         -5.7710    -0.7080     1.2930 hc         1 DVE       0.043700
     73 H43         -8.5520    -0.1940    -1.8730 ha         1 DVE       0.161500
     74 H44         -7.2480    -1.4890    -2.0190 ha         1 DVE       0.161500
     75 H46         -8.5770     1.2760    -0.1120 hc         1 DVE       0.046700
     76 H47         -7.4910     0.0060     2.4500 hc         1 DVE       0.033367
     77 H48         -8.7680     1.2110     2.3500 hc         1 DVE       0.033367
     78 H49         -9.0200    -0.3960     1.6650 hc         1 DVE       0.033367
     79 H50         -6.3850     2.4440    -0.2560 hc         1 DVE       0.033367
     80 H51         -7.2430     2.8620     1.2270 hc         1 DVE       0.033367
     81 H52         -5.8920     1.7380     1.2840 hc         1 DVE       0.033367
@<TRIPOS>BOND
     1     1     2 1   
     2     1    32 1   
     3     1    33 1   
     4     1    34 1   
     5     2     3 1   
     6     2     9 1   
     7     2    13 1   
     8     3     4 1   
     9     3    35 1   
    10     3    36 1   
    11     4     5 1   
    12     4    37 1   
    13     4    38 1   
    14     5     6 1   
    15     5     7 1   
    16     5    39 1   
    17     6    40 1   
    18     7     8 1   
    19     7     9 1   
    20     7    41 1   
    21     8    42 1   
    22     8    43 1   
    23     8    44 1   
    24     9    10 1   
    25     9    45 1   
    26    10    11 1   
    27    10    46 1   
    28    10    47 1   
    29    11    12 1   
    30    11    48 1   
    31    11    49 1   
    32    12    13 2   
    33    12    18 1   
    34    13    14 1   
    35    14    15 1   
    36    14    50 1   
    37    14    51 1   
    38    15    16 1   
    39    15    52 1   
    40    15    53 1   
    41    16    17 1   
    42    16    18 1   
    43    16    22 1   
    44    17    54 1   
    45    17    55 1   
    46    17    56 1   
    47    18    19 1   
    48    18    20 1   
    49    19    57 1   
    50    19    58 1   
    51    19    59 1   
    52    20    21 1   
    53    20    60 1   
    54    20    61 1   
    55    21    22 1   
    56    21    62 1   
    57    21    63 1   
    58    22    23 1   
    59    22    64 1   
    60    23    24 1   
    61    23    25 1   
    62    23    65 1   
    63    24    66 1   
    64    24    67 1   
    65    24    68 1   
    66    25    26 1   
    67    25    69 1   
    68    25    70 1   
    69    26    27 1   
    70    26    71 1   
    71    26    72 1   
    72    27    28 2   
    73    27    29 1   
    74    28    73 1   
    75    28    74 1   
    76    29    30 1   
    77    29    31 1   
    78    29    75 1   
    79    30    76 1   
    80    30    77 1   
    81    30    78 1   
    82    31    79 1   
    83    31    80 1   
    84    31    81 1   
@<TRIPOS>SUBSTRUCTURE
     1 DVE         1 TEMP              0 ****  ****    0 ROOT
