@<TRIPOS>MOLECULE
DVE
   81    84     1     0     0
SMALL
No Charge or Current Charge


@<TRIPOS>ATOM
      1 C3           3.6870    -0.5120     1.9670 c3         1 DVE      -0.081100
      2 C2           3.7440    -0.4770     0.4010 c6         1 DVE       0.005200
      3 C4           4.5040    -1.7400    -0.1270 c6         1 DVE      -0.063400
      4 C5           6.0050    -1.7430     0.2450 c6         1 DVE      -0.112400
      5 C6           6.7220    -0.4810    -0.2800 c6         1 DVE       0.172300
      6 O8           8.0890    -0.5230     0.1490 oh         1 DVE      -0.661000
      7 C9           6.0220     0.8290     0.2050 c6         1 DVE      -0.048700
      8 C11          6.7490     2.0820    -0.3860 c3         1 DVE      -0.084100
      9 C1           4.4880     0.7980    -0.1570 c6         1 DVE      -0.049700
     10 C15          3.7320     2.0830     0.2800 c6         1 DVE      -0.068400
     11 C14          2.2760     2.0980    -0.2320 c6         1 DVE      -0.035200
     12 C13          1.5930     0.7260    -0.3140 c2         1 DVE      -0.095400
     13 C12          2.2640    -0.4490    -0.0600 c2         1 DVE      -0.110400
     14 C21          1.5500    -1.8220    -0.1570 c6         1 DVE      -0.033200
     15 C20          0.0180    -1.7900    -0.4490 c6         1 DVE      -0.059400
     16 C18         -0.6410    -0.4420    -0.0310 c5         1 DVE      -0.028000
     17 C19         -0.5610    -0.3490     1.5420 c3         1 DVE      -0.082100
     18 C16          0.1020     0.7140    -0.8210 c5         1 DVE      -0.008800
     19 C17          0.1440     0.6270    -2.3850 c3         1 DVE      -0.079100
     20 C35         -0.7430     1.9330    -0.3550 c5         1 DVE      -0.069400
     21 C34         -2.2110     1.3980    -0.4600 c5         1 DVE      -0.076400
     22 C22         -2.1190    -0.1780    -0.5330 c5         1 DVE      -0.051700
     23 C24         -3.3290    -0.8930     0.1730 c3         1 DVE      -0.049700
     24 C33         -3.2100    -2.4380     0.2180 c3         1 DVE      -0.087100
     25 C26         -4.7100    -0.4720    -0.4760 c3         1 DVE      -0.074400
     26 C27         -6.0400    -0.9190     0.2300 c3         1 DVE      -0.040200
     27 C28         -7.2760    -0.2400    -0.3520 c2         1 DVE      -0.107400
     28 C32         -7.8410    -0.6700    -1.4910 c2         1 DVE      -0.325000
     29 C29         -7.8490     0.9290     0.4550 c3         1 DVE      -0.025500
     30 C31         -8.5290     0.4530     1.7600 c3         1 DVE      -0.084100
     31 C30         -6.8250     2.0580     0.7170 c3         1 DVE      -0.084100
     32 H1           3.0120     0.2560     2.3600 hc         1 DVE       0.034700
     33 H2           3.3060    -1.4740     2.3290 hc         1 DVE       0.034700
     34 H3           4.6650    -0.3610     2.4360 hc         1 DVE       0.034700
     35 H4           4.0590    -2.6610     0.2730 hc         1 DVE       0.042200
     36 H5           4.4050    -1.7990    -1.2200 hc         1 DVE       0.042200
     37 H6           6.1260    -1.8230     1.3330 hc         1 DVE       0.044200
     38 H7           6.4780    -2.6390    -0.1800 hc         1 DVE       0.044200
     39 H8           6.6830    -0.5010    -1.3790 h1         1 DVE       0.026700
     40 H9           8.4720    -1.3480    -0.2220 ho         1 DVE       0.440000
     41 H10          6.1360     0.9070     1.2940 hc         1 DVE       0.059700
     42 H11          6.5810     2.1680    -1.4660 hc         1 DVE       0.036033
     43 H12          6.4130     3.0110     0.0870 hc         1 DVE       0.036033
     44 H13          7.8320     2.0390    -0.2240 hc         1 DVE       0.036033
     45 H14          4.4250     0.7540    -1.2540 hc         1 DVE       0.047700
     46 H15          3.7490     2.1850     1.3730 hc         1 DVE       0.042700
     47 H16          4.2210     2.9840    -0.1080 hc         1 DVE       0.042700
     48 H17          1.7040     2.7760     0.4130 hc         1 DVE       0.045200
     49 H18          2.2630     2.5490    -1.2330 hc         1 DVE       0.045200
     50 H19          2.0250    -2.4410    -0.9280 hc         1 DVE       0.041700
     51 H20          1.6950    -2.3560     0.7920 hc         1 DVE       0.041700
     52 H21         -0.1540    -1.9750    -1.5170 hc         1 DVE       0.040700
     53 H22         -0.4430    -2.6420     0.0600 hc         1 DVE       0.040700
     54 H23         -1.1390     0.4870     1.9500 hc         1 DVE       0.034033
     55 H24         -0.9650    -1.2530     2.0110 hc         1 DVE       0.034033
     56 H25          0.4620    -0.2370     1.9130 hc         1 DVE       0.034033
     57 H26         -0.8460     0.6170    -2.8530 hc         1 DVE       0.033700
     58 H27          0.6680     1.4960    -2.8000 hc         1 DVE       0.033700
     59 H28          0.6890    -0.2570    -2.7330 hc         1 DVE       0.033700
     60 H29         -0.5130     2.2390     0.6710 hc         1 DVE       0.043200
     61 H30         -0.5840     2.8190    -0.9810 hc         1 DVE       0.043200
     62 H31         -2.7960     1.7290     0.4050 hc         1 DVE       0.039700
     63 H32         -2.7160     1.7990    -1.3470 hc         1 DVE       0.039700
     64 H33         -2.2060    -0.5010    -1.5760 hc         1 DVE       0.046700
     65 H34         -3.3660    -0.5530     1.2150 hc         1 DVE       0.046700
     66 H35         -2.9900    -2.8450    -0.7760 hc         1 DVE       0.032367
     67 H36         -2.4260    -2.7510     0.9130 hc         1 DVE       0.032367
     68 H37         -4.1320    -2.9040     0.5810 hc         1 DVE       0.032367
     69 H38         -4.7410     0.6190    -0.5490 hc         1 DVE       0.041200
     70 H39         -4.7330    -0.8330    -1.5120 hc         1 DVE       0.041200
     71 H40         -6.1480    -2.0040     0.1140 hc         1 DVE       0.043700
     72 H41         -5.9540    -0.7430     1.3090 hc         1 DVE       0.043700
     73 H43         -8.7320    -0.1980    -1.9060 ha         1 DVE       0.161500
     74 H44         -7.4300    -1.5100    -2.0510 ha         1 DVE       0.161500
     75 H46         -8.6480     1.3860    -0.1430 hc         1 DVE       0.046700
     76 H47         -7.7980     0.0450     2.4680 hc         1 DVE       0.033367
     77 H48         -9.0460     1.2860     2.2500 hc         1 DVE       0.033367
     78 H49         -9.2700    -0.3260     1.5440 hc         1 DVE       0.033367
     79 H50         -6.3910     2.4090    -0.2270 hc         1 DVE       0.033367
     80 H51         -7.3110     2.9120     1.2020 hc         1 DVE       0.033367
     81 H52         -6.0110     1.7180     1.3680 hc         1 DVE       0.033367
@<TRIPOS>BOND
     1     1     2 1   
     2     1    32 1   
     3     1    33 1   
     4     1    34 1   
     5     2     3 1   
     6     2     9 1   
     7     2    13 1   
     8     3     4 1   
     9     3    35 1   
    10     3    36 1   
    11     4     5 1   
    12     4    37 1   
    13     4    38 1   
    14     5     6 1   
    15     5     7 1   
    16     5    39 1   
    17     6    40 1   
    18     7     8 1   
    19     7     9 1   
    20     7    41 1   
    21     8    42 1   
    22     8    43 1   
    23     8    44 1   
    24     9    10 1   
    25     9    45 1   
    26    10    11 1   
    27    10    46 1   
    28    10    47 1   
    29    11    12 1   
    30    11    48 1   
    31    11    49 1   
    32    12    13 2   
    33    12    18 1   
    34    13    14 1   
    35    14    15 1   
    36    14    50 1   
    37    14    51 1   
    38    15    16 1   
    39    15    52 1   
    40    15    53 1   
    41    16    17 1   
    42    16    18 1   
    43    16    22 1   
    44    17    54 1   
    45    17    55 1   
    46    17    56 1   
    47    18    19 1   
    48    18    20 1   
    49    19    57 1   
    50    19    58 1   
    51    19    59 1   
    52    20    21 1   
    53    20    60 1   
    54    20    61 1   
    55    21    22 1   
    56    21    62 1   
    57    21    63 1   
    58    22    23 1   
    59    22    64 1   
    60    23    24 1   
    61    23    25 1   
    62    23    65 1   
    63    24    66 1   
    64    24    67 1   
    65    24    68 1   
    66    25    26 1   
    67    25    69 1   
    68    25    70 1   
    69    26    27 1   
    70    26    71 1   
    71    26    72 1   
    72    27    28 2   
    73    27    29 1   
    74    28    73 1   
    75    28    74 1   
    76    29    30 1   
    77    29    31 1   
    78    29    75 1   
    79    30    76 1   
    80    30    77 1   
    81    30    78 1   
    82    31    79 1   
    83    31    80 1   
    84    31    81 1   
@<TRIPOS>SUBSTRUCTURE
     1 DVE         1 TEMP              0 ****  ****    0 ROOT
