@<TRIPOS>MOLECULE
DVH
   24    24     1     0     0
SMALL
No Charge or Current Charge


@<TRIPOS>ATOM
      1 C1          -1.8840    -0.2230     0.1080 c6         1 DVH       0.137300
      2 C2          -1.0280    -0.8980     1.2160 c6         1 DVH      -0.105400
      3 C3           0.3980    -1.2540     0.7160 c6         1 DVH      -0.062400
      4 C4           1.1300    -0.0110     0.1440 c6         1 DVH      -0.028500
      5 C5           0.2800     0.6640    -0.9700 c6         1 DVH      -0.058400
      6 C6          -1.1510     1.0330    -0.4830 c6         1 DVH       0.177300
      7 C7           2.5060    -0.3920    -0.3850 c2         1 DVH      -0.213200
      8 C8           3.6540     0.1210     0.0860 c2         1 DVH      -0.318000
      9 O1          -2.1790    -1.1800    -0.9220 oh         1 DVH      -0.659000
     10 O2          -1.0740     2.0960     0.4850 oh         1 DVH      -0.658000
     11 H1          -2.8290     0.1120     0.5600 h1         1 DVH       0.022700
     12 H2          -0.9520    -0.2240     2.0800 hc         1 DVH       0.045700
     13 H3          -1.5310    -1.8030     1.5840 hc         1 DVH       0.045700
     14 H4           0.9820    -1.6780     1.5450 hc         1 DVH       0.043200
     15 H5           0.3380    -2.0380    -0.0510 hc         1 DVH       0.043200
     16 H6           1.2580     0.7130     0.9620 hc         1 DVH       0.062700
     17 H7           0.7900     1.5660    -1.3340 hc         1 DVH       0.055700
     18 H8           0.2040    -0.0110    -1.8340 hc         1 DVH       0.055700
     19 H9          -1.7240     1.3850    -1.3540 h1         1 DVH       0.044700
     20 H10          2.5230    -1.1280    -1.1930 ha         1 DVH       0.164000
     21 H11          4.6210    -0.1790    -0.3200 ha         1 DVH       0.161500
     22 H12          3.6710     0.8570     0.8920 ha         1 DVH       0.161500
     23 H13         -2.6510    -1.9250    -0.4880 ho         1 DVH       0.444000
     24 H14         -1.9960     2.3740     0.6730 ho         1 DVH       0.438000
@<TRIPOS>BOND
     1     1     2 1   
     2     1     6 1   
     3     1     9 1   
     4     1    11 1   
     5     2     3 1   
     6     2    12 1   
     7     2    13 1   
     8     3     4 1   
     9     3    14 1   
    10     3    15 1   
    11     4     5 1   
    12     4     7 1   
    13     4    16 1   
    14     5     6 1   
    15     5    17 1   
    16     5    18 1   
    17     6    10 1   
    18     6    19 1   
    19     7     8 2   
    20     7    20 1   
    21     8    21 1   
    22     8    22 1   
    23     9    23 1   
    24    10    24 1   
@<TRIPOS>SUBSTRUCTURE
     1 DVH         1 TEMP              0 ****  ****    0 ROOT
