@<TRIPOS>MOLECULE
DVH
   24    24     1     0     0
SMALL
bcc


@<TRIPOS>ATOM
      1 C1          -1.8600    -0.2230     0.1140 c6         1 DVH       0.114100
      2 C2          -1.0200    -0.8650     1.2120 c6         1 DVH      -0.105400
      3 C3           0.3840    -1.2220     0.7360 c6         1 DVH      -0.062400
      4 C4           1.1090     0.0010     0.1640 c6         1 DVH      -0.028500
      5 C5           0.2630     0.6450    -0.9420 c6         1 DVH      -0.058400
      6 C6          -1.1460     0.9930    -0.4850 c6         1 DVH       0.154100
      7 C7           2.4550    -0.3760    -0.3690 c2         1 DVH      -0.163200
      8 C8           3.6160     0.1010     0.0660 c2         1 DVH      -0.218000
      9 O1          -2.1110    -1.1110    -0.9560 oh         1 DVH      -0.596800
     10 O2          -1.0470     2.0270     0.4730 oh         1 DVH      -0.595800
     11 H1          -2.8120     0.1190     0.5520 h1         1 DVH       0.022700
     12 H2          -0.9590    -0.1700     2.0540 hc         1 DVH       0.045700
     13 H3          -1.5330    -1.7550     1.5910 hc         1 DVH       0.045700
     14 H4           0.9620    -1.6380     1.5640 hc         1 DVH       0.043200
     15 H5           0.3330    -2.0030    -0.0300 hc         1 DVH       0.043200
     16 H6           1.2460     0.7310     0.9700 hc         1 DVH       0.062700
     17 H7           0.7550     1.5480    -1.3130 hc         1 DVH       0.055700
     18 H8           0.1950    -0.0400    -1.7920 hc         1 DVH       0.055700
     19 H9          -1.7240     1.3350    -1.3570 h1         1 DVH       0.044700
     20 H10          2.4520    -1.0990    -1.1820 ha         1 DVH       0.114000
     21 H11          4.5580    -0.2110    -0.3670 ha         1 DVH       0.111500
     22 H12          3.6680     0.8250     0.8710 ha         1 DVH       0.111500
     23 H13         -2.4920    -1.9180    -0.5950 ho         1 DVH       0.405000
     24 H14         -1.9360     2.2840     0.7370 ho         1 DVH       0.399000
@<TRIPOS>BOND
     1     1     2 1   
     2     1     6 1   
     3     1     9 1   
     4     1    11 1   
     5     2     3 1   
     6     2    12 1   
     7     2    13 1   
     8     3     4 1   
     9     3    14 1   
    10     3    15 1   
    11     4     5 1   
    12     4     7 1   
    13     4    16 1   
    14     5     6 1   
    15     5    17 1   
    16     5    18 1   
    17     6    10 1   
    18     6    19 1   
    19     7     8 2   
    20     7    20 1   
    21     8    21 1   
    22     8    22 1   
    23     9    23 1   
    24    10    24 1   
@<TRIPOS>SUBSTRUCTURE
     1 DVH         1 TEMP              0 ****  ****    0 ROOT
