@<TRIPOS>MOLECULE
DVI
   76    80     1     0     0
SMALL
No Charge or Current Charge


@<TRIPOS>ATOM
      1 C16         -4.0550   -64.4760    -5.0180 c          1 DVI       0.626100
      2 C7          -2.3700   -62.3510    -9.0280 c3         1 DVI      -0.089100
      3 C14         -1.8860   -64.6330    -7.9900 c          1 DVI       0.600100
      4 C15         -1.3370   -66.7420    -6.9490 c3         1 DVI       0.149900
      5 C17         -2.5620   -65.8140    -3.4060 ca         1 DVI      -0.036000
      6 C18         -3.1040   -67.1040    -3.5880 ca         1 DVI      -0.086000
      7 C19         -2.6080   -68.1870    -2.8470 ca         1 DVI      -0.105000
      8 C20         -1.5690   -67.9980    -1.9220 ca         1 DVI      -0.072000
      9 C21         -1.0040   -66.7180    -1.7240 ca         1 DVI      -0.136600
     10 C22         -1.5150   -65.6320    -2.4810 ca         1 DVI      -0.118000
     11 C23          0.1240   -66.5500    -0.7170 c          1 DVI       0.624700
     12 C26          1.6480   -64.7040     0.2360 ca         1 DVI      -0.016000
     13 C27          1.9670   -63.3480     0.0410 ca         1 DVI      -0.163000
     14 C28          2.9610   -62.7080     0.8100 ca         1 DVI      -0.031300
     15 C29          3.6670   -63.4520     1.7930 ca         1 DVI       0.263000
     16 C2          -4.1130   -63.0780    -5.6380 c6         1 DVI      -0.262700
     17 C30          3.3280   -64.8000     2.0040 ca         1 DVI      -0.098000
     18 C31          2.3330   -65.4260     1.2340 ca         1 DVI      -0.120000
     19 C33          5.8600   -62.2390     2.2910 ca         1 DVI       0.392900
     20 C35          7.6890   -61.1200     3.0700 ca         1 DVI       0.151900
     21 C36          8.1480   -60.9730     1.7510 ca         1 DVI      -0.277000
     22 C37          7.3720   -61.5230     0.7000 cp         1 DVI       0.227500
     23 C39          3.2010   -61.2170     0.5730 c3         1 DVI      -0.047800
     24 C1          -5.4440   -62.8200    -6.3340 c          1 DVI       0.596100
     25 C40          7.7540   -61.4340    -0.7500 cp         1 DVI      -0.212500
     26 C41          9.0320   -60.9850    -1.1740 ca         1 DVI      -0.051000
     27 C42          9.3190   -60.9280    -2.5460 ca         1 DVI      -0.175000
     28 C43          8.3390   -61.3170    -3.4690 ca         1 DVI       0.348900
     29 C45          6.8380   -61.8070    -1.7730 ca         1 DVI       0.381900
     30 C6          -5.4310   -62.9470    -7.8620 c6         1 DVI      -0.176400
     31 C5          -4.3100   -63.8990    -8.3560 c6         1 DVI      -0.059400
     32 C4          -2.8630   -63.4080    -7.9810 c6         1 DVI      -0.100000
     33 C3          -2.8780   -62.7480    -6.5440 c6         1 DVI      -0.057400
     34 N2          -3.0030   -64.6720    -4.1310 ns         1 DVI      -0.140000
     35 N25          0.6290   -65.2600    -0.5870 ns         1 DVI      -0.144000
     36 N32          4.6790   -62.9000     2.5940 nu         1 DVI      -0.946900
     37 N34          6.5380   -61.7600     3.3450 nb         1 DVI      -0.243000
     38 N38          6.2210   -62.1580     0.9980 nb         1 DVI      -0.242000
     39 N44          7.1160   -61.7510    -3.0980 nb         1 DVI      -0.674000
     40 O2          -4.8970   -65.3250    -5.2810 o          1 DVI      -0.574100
     41 O           -2.1850   -65.5840    -7.0490 os         1 DVI      -0.434100
     42 O4          -6.4600   -62.5420    -5.7120 o          1 DVI      -0.499100
     43 O24          0.5490   -67.5060    -0.0760 o          1 DVI      -0.579100
     44 H1          -1.3620   -61.9900    -8.7870 hc         1 DVI       0.047367
     45 H2          -2.3350   -62.7720   -10.0410 hc         1 DVI       0.047367
     46 H3          -3.0290   -61.4760    -9.0650 hc         1 DVI       0.047367
     47 H4          -1.6970   -67.4120    -6.1590 h1         1 DVI       0.051033
     48 H5          -1.3280   -67.3030    -7.8930 h1         1 DVI       0.051033
     49 H6          -0.3060   -66.4530    -6.7050 h1         1 DVI       0.051033
     50 H7          -3.8990   -67.2920    -4.3020 ha         1 DVI       0.140000
     51 H8          -3.0290   -69.1790    -2.9920 ha         1 DVI       0.122000
     52 H9          -1.2030   -68.8560    -1.3610 ha         1 DVI       0.137000
     53 H10         -1.1080   -64.6320    -2.3610 ha         1 DVI       0.114000
     54 H11          1.4310   -62.7780    -0.7150 ha         1 DVI       0.109000
     55 H12         -4.0310   -62.4080    -4.7720 hc         1 DVI       0.085700
     56 H13          3.8510   -65.3740     2.7640 ha         1 DVI       0.119000
     57 H14          2.1120   -66.4700     1.4350 ha         1 DVI       0.150000
     58 H15          8.2470   -60.7180     3.9150 h4         1 DVI       0.021100
     59 H16          9.0740   -60.4400     1.5650 ha         1 DVI       0.133000
     60 H17          3.5420   -60.7050     1.4800 hc         1 DVI       0.047033
     61 H18          3.9480   -61.0560    -0.2110 hc         1 DVI       0.047033
     62 H19          2.2800   -60.7140     0.2550 hc         1 DVI       0.047033
     63 H20          9.7990   -60.6930    -0.4620 ha         1 DVI       0.120000
     64 H21         10.2900   -60.5900    -2.8960 ha         1 DVI       0.125000
     65 H22          8.5380   -61.2810    -4.5400 h4         1 DVI       0.019100
     66 H23          5.8380   -62.1620    -1.5280 h4         1 DVI       0.044100
     67 H24         -5.2380   -61.9430    -8.2600 hc         1 DVI       0.071200
     68 H25         -6.4290   -63.2390    -8.2130 hc         1 DVI       0.071200
     69 H26         -4.4990   -64.9000    -7.9430 hc         1 DVI       0.069700
     70 H27         -4.3890   -64.0270    -9.4450 hc         1 DVI       0.069700
     71 H28         -1.9380   -62.9660    -6.0170 hc         1 DVI       0.060700
     72 H29         -2.8650   -61.6540    -6.6620 hc         1 DVI       0.060700
     73 H30         -2.4220   -63.8550    -3.9970 hn         1 DVI       0.150000
     74 H31          0.1870   -64.5830    -1.1920 hn         1 DVI       0.153000
     75 H32          4.6460   -63.1950     3.5700 hn         1 DVI       0.515000
     76 O1          -0.9330   -64.7280    -8.7550 o          1 DVI      -0.494000
@<TRIPOS>BOND
     1     1    16 1   
     2     1    34 1   
     3     1    40 2   
     4     2    32 1   
     5     2    44 1   
     6     2    45 1   
     7     2    46 1   
     8     3    32 1   
     9     3    41 1   
    10     3    76 2   
    11     4    41 1   
    12     4    47 1   
    13     4    48 1   
    14     4    49 1   
    15     5     6 ar  
    16     5    10 ar  
    17     5    34 1   
    18     6     7 ar  
    19     6    50 1   
    20     7     8 ar  
    21     7    51 1   
    22     8     9 ar  
    23     8    52 1   
    24     9    10 ar  
    25     9    11 1   
    26    10    53 1   
    27    11    35 1   
    28    11    43 2   
    29    12    13 ar  
    30    12    18 ar  
    31    12    35 1   
    32    13    14 ar  
    33    13    54 1   
    34    14    15 ar  
    35    14    23 1   
    36    15    17 ar  
    37    15    36 1   
    38    16    24 1   
    39    16    33 1   
    40    16    55 1   
    41    17    18 ar  
    42    17    56 1   
    43    18    57 1   
    44    19    36 1   
    45    19    37 ar  
    46    19    38 ar  
    47    20    21 ar  
    48    20    37 ar  
    49    20    58 1   
    50    21    22 ar  
    51    21    59 1   
    52    22    25 1   
    53    22    38 ar  
    54    23    60 1   
    55    23    61 1   
    56    23    62 1   
    57    24    30 1   
    58    24    42 2   
    59    25    26 ar  
    60    25    29 ar  
    61    26    27 ar  
    62    26    63 1   
    63    27    28 ar  
    64    27    64 1   
    65    28    39 ar  
    66    28    65 1   
    67    29    39 ar  
    68    29    66 1   
    69    30    31 1   
    70    30    67 1   
    71    30    68 1   
    72    31    32 1   
    73    31    69 1   
    74    31    70 1   
    75    32    33 1   
    76    33    71 1   
    77    33    72 1   
    78    34    73 1   
    79    35    74 1   
    80    36    75 1   
@<TRIPOS>SUBSTRUCTURE
     1 DVI         1 TEMP              0 ****  ****    0 ROOT
