@<TRIPOS>MOLECULE
DVI
   76    80     1     0     0
SMALL
abcg2


@<TRIPOS>ATOM
      1 C16         -3.9050   -64.5150    -5.0090 c          1 DVI       0.626100
      2 C7          -1.2740   -62.4140    -8.1340 c3         1 DVI      -0.089100
      3 C14         -1.3240   -64.4910    -6.8290 c          1 DVI       0.600100
      4 C15         -0.2070   -66.4750    -7.4250 c3         1 DVI       0.149900
      5 C17         -2.9370   -65.5780    -3.0210 ca         1 DVI      -0.036000
      6 C18         -3.5910   -66.8070    -3.0020 ca         1 DVI      -0.086000
      7 C19         -3.0560   -67.8540    -2.2660 ca         1 DVI      -0.105000
      8 C20         -1.8910   -67.6900    -1.5360 ca         1 DVI      -0.072000
      9 C21         -1.2490   -66.4540    -1.5270 ca         1 DVI      -0.136600
     10 C22         -1.7670   -65.4100    -2.2850 ca         1 DVI      -0.118000
     11 C23          0.0160   -66.3380    -0.7350 c          1 DVI       0.624700
     12 C26          1.4710   -64.6620     0.3770 ca         1 DVI      -0.016000
     13 C27          1.7080   -63.2870     0.4060 ca         1 DVI      -0.163000
     14 C28          2.7900   -62.7310     1.0750 ca         1 DVI      -0.031300
     15 C29          3.6830   -63.5960     1.7170 ca         1 DVI       0.263000
     16 C2          -4.1070   -63.1430    -5.6300 c6         1 DVI      -0.262700
     17 C30          3.4500   -64.9650     1.6910 ca         1 DVI      -0.098000
     18 C31          2.3550   -65.5110     1.0390 ca         1 DVI      -0.120000
     19 C33          5.8690   -62.4950     1.9140 ca         1 DVI       0.392900
     20 C35          7.8510   -61.4850     2.2590 ca         1 DVI       0.151900
     21 C36          7.9990   -61.2520     0.9010 ca         1 DVI      -0.277000
     22 C37          6.9800   -61.7300     0.0820 cp         1 DVI       0.227500
     23 C39          2.9700   -61.2450     1.0950 c3         1 DVI      -0.047800
     24 C1          -5.1560   -63.2300    -6.7320 c          1 DVI       0.596100
     25 C40          7.0050   -61.5780    -1.3860 cp         1 DVI      -0.212500
     26 C41          8.1640   -61.2530    -2.0850 ca         1 DVI      -0.051000
     27 C42          8.1100   -61.1290    -3.4630 ca         1 DVI      -0.175000
     28 C43          6.8960   -61.3340    -4.0990 ca         1 DVI       0.348900
     29 C45          5.8400   -61.7660    -2.1320 ca         1 DVI       0.381900
     30 C6          -4.6200   -63.1140    -8.1330 c6         1 DVI      -0.176400
     31 C5          -3.3160   -63.8960    -8.2810 c6         1 DVI      -0.059400
     32 C4          -2.2000   -63.3590    -7.3490 c6         1 DVI      -0.100000
     33 C3          -2.7980   -62.5670    -6.1750 c6         1 DVI      -0.057400
     34 N2          -3.4280   -64.4780    -3.7400 ns         1 DVI      -0.140000
     35 N25          0.3230   -65.0900    -0.3030 ns         1 DVI      -0.144000
     36 N32          4.7820   -63.1010     2.4490 nu         1 DVI      -0.946900
     37 N34          6.8060   -62.0980     2.7830 nb         1 DVI      -0.243000
     38 N38          5.9230   -62.3510     0.5940 nb         1 DVI      -0.242000
     39 N44          5.7800   -61.6450    -3.4490 nb         1 DVI      -0.674000
     40 O2          -4.1290   -65.5430    -5.6200 o          1 DVI      -0.574100
     41 O           -1.0540   -65.3810    -7.7720 os         1 DVI      -0.434100
     42 O4          -6.3270   -63.3650    -6.4720 o          1 DVI      -0.499100
     43 O24          0.6930   -67.3230    -0.4990 o          1 DVI      -0.579100
     44 H1          -0.5190   -61.9680    -7.4850 hc         1 DVI       0.047367
     45 H2          -0.7670   -62.9310    -8.9490 hc         1 DVI       0.047367
     46 H3          -1.8630   -61.6040    -8.5660 hc         1 DVI       0.047367
     47 H4          -0.1170   -67.0800    -8.3220 h1         1 DVI       0.051033
     48 H5           0.7820   -66.1340    -7.1180 h1         1 DVI       0.051033
     49 H6          -0.6430   -67.0760    -6.6260 h1         1 DVI       0.051033
     50 H7          -4.5150   -66.9490    -3.5420 ha         1 DVI       0.140000
     51 H8          -3.5670   -68.8070    -2.2550 ha         1 DVI       0.122000
     52 H9          -1.4910   -68.5150    -0.9640 ha         1 DVI       0.137000
     53 H10         -1.2570   -64.4560    -2.3490 ha         1 DVI       0.114000
     54 H11          1.0140   -62.6220    -0.0980 ha         1 DVI       0.109000
     55 H12         -4.4920   -62.4620    -4.8640 hc         1 DVI       0.085700
     56 H13          4.1420   -65.6250     2.1990 ha         1 DVI       0.119000
     57 H14          2.2070   -66.5770     1.0570 ha         1 DVI       0.150000
     58 H15          8.6160   -61.1550     2.9540 h4         1 DVI       0.021100
     59 H16          8.8610   -60.7230     0.5260 ha         1 DVI       0.133000
     60 H17          3.3000   -60.8940     2.0740 hc         1 DVI       0.047033
     61 H18          3.7230   -60.9320     0.3700 hc         1 DVI       0.047033
     62 H19          2.0390   -60.7360     0.8480 hc         1 DVI       0.047033
     63 H20          9.1070   -61.1100    -1.5730 ha         1 DVI       0.120000
     64 H21          8.9940   -60.8830    -4.0350 ha         1 DVI       0.125000
     65 H22          6.8210   -61.2450    -5.1770 h4         1 DVI       0.019100
     66 H23          4.9170   -62.0230    -1.6260 h4         1 DVI       0.044100
     67 H24         -4.4550   -62.0510    -8.3450 hc         1 DVI       0.071200
     68 H25         -5.3690   -63.4650    -8.8430 hc         1 DVI       0.071200
     69 H26         -3.5300   -64.9450    -8.0800 hc         1 DVI       0.069700
     70 H27         -2.9870   -63.8480    -9.3190 hc         1 DVI       0.069700
     71 H28         -2.0650   -62.4540    -5.3760 hc         1 DVI       0.060700
     72 H29         -3.0130   -61.5530    -6.5180 hc         1 DVI       0.060700
     73 H30         -3.1840   -63.5700    -3.3730 hn         1 DVI       0.150000
     74 H31         -0.3370   -64.3560    -0.5120 hn         1 DVI       0.153000
     75 H32          4.8520   -63.3450     3.4250 hn         1 DVI       0.515000
     76 O1          -0.8740   -64.5590    -5.7120 o          1 DVI      -0.494000
@<TRIPOS>BOND
     1     1    16 1   
     2     1    34 1   
     3     1    40 2   
     4     2    32 1   
     5     2    44 1   
     6     2    45 1   
     7     2    46 1   
     8     3    32 1   
     9     3    41 1   
    10     3    76 2   
    11     4    41 1   
    12     4    47 1   
    13     4    48 1   
    14     4    49 1   
    15     5     6 ar  
    16     5    10 ar  
    17     5    34 1   
    18     6     7 ar  
    19     6    50 1   
    20     7     8 ar  
    21     7    51 1   
    22     8     9 ar  
    23     8    52 1   
    24     9    10 ar  
    25     9    11 1   
    26    10    53 1   
    27    11    35 1   
    28    11    43 2   
    29    12    13 ar  
    30    12    18 ar  
    31    12    35 1   
    32    13    14 ar  
    33    13    54 1   
    34    14    15 ar  
    35    14    23 1   
    36    15    17 ar  
    37    15    36 1   
    38    16    24 1   
    39    16    33 1   
    40    16    55 1   
    41    17    18 ar  
    42    17    56 1   
    43    18    57 1   
    44    19    36 1   
    45    19    37 ar  
    46    19    38 ar  
    47    20    21 ar  
    48    20    37 ar  
    49    20    58 1   
    50    21    22 ar  
    51    21    59 1   
    52    22    25 1   
    53    22    38 ar  
    54    23    60 1   
    55    23    61 1   
    56    23    62 1   
    57    24    30 1   
    58    24    42 2   
    59    25    26 ar  
    60    25    29 ar  
    61    26    27 ar  
    62    26    63 1   
    63    27    28 ar  
    64    27    64 1   
    65    28    39 ar  
    66    28    65 1   
    67    29    39 ar  
    68    29    66 1   
    69    30    31 1   
    70    30    67 1   
    71    30    68 1   
    72    31    32 1   
    73    31    69 1   
    74    31    70 1   
    75    32    33 1   
    76    33    71 1   
    77    33    72 1   
    78    34    73 1   
    79    35    74 1   
    80    36    75 1   
@<TRIPOS>SUBSTRUCTURE
     1 DVI         1 TEMP              0 ****  ****    0 ROOT
