@<TRIPOS>MOLECULE
DVJ
   66    71     1     0     0
SMALL
No Charge or Current Charge


@<TRIPOS>ATOM
      1 C4          -7.9110    -2.6410    -1.6560 c6         1 DVJ       0.092600
      2 C6          -7.3180    -0.4430    -0.6140 cc         1 DVJ      -0.122300
      3 C11         -3.0560     0.3510     0.3140 cc         1 DVJ       0.102800
      4 C7          -6.1460     0.1560    -0.2540 cd         1 DVJ      -0.235000
      5 C8          -5.1360    -0.7750    -0.5500 cd         1 DVJ       0.485900
      6 C12         -1.8520     0.7920    -0.2090 cd         1 DVJ      -0.360600
      7 C13         -1.0590     1.7490     0.5220 cd         1 DVJ       0.432200
      8 N2          -9.6270    -0.7890    -1.3750 n3         1 DVJ      -0.714600
      9 C3          -9.3530    -2.2550    -1.2160 c6         1 DVJ       0.139800
     10 C1         -11.0570    -0.4500    -1.2030 c3         1 DVJ       0.151100
     11 N5          -6.9360    -1.6800    -1.1130 na         1 DVJ       0.144800
     12 N9          -5.5660    -1.8860    -1.0930 nc         1 DVJ      -0.530800
     13 N10         -3.8000    -0.5820    -0.4040 nu         1 DVJ      -0.761900
     14 N14         -1.4710     2.2250     1.6960 nc         1 DVJ      -0.437300
     15 N15         -2.6540     1.7640     2.2160 ns         1 DVJ      -0.223900
     16 C17         -3.5250     0.8420     1.6710 c          1 DVJ       0.527200
     17 O18         -4.5320     0.4850     2.2700 o          1 DVJ      -0.528000
     18 C19          0.2110     2.2650    -0.0120 ca         1 DVJ      -0.101900
     19 C20          0.2170     3.5540    -0.5750 ca         1 DVJ      -0.085000
     20 C21          1.3960     4.0930    -1.1030 ca         1 DVJ      -0.103000
     21 C22          2.5830     3.3470    -1.0750 ca         1 DVJ      -0.089000
     22 C23          2.6020     2.0470    -0.5250 ca         1 DVJ      -0.043000
     23 C24          1.4050     1.4960     0.0100 ca         1 DVJ      -0.071300
     24 C25          1.4130     0.0940     0.6440 c3         1 DVJ      -0.036100
     25 C26          1.7910     0.1380     2.1390 c3         1 DVJ       0.161600
     26 O27          1.8270    -1.1920     2.6710 oh         1 DVJ      -0.666000
     27 N28          3.8030     1.2810    -0.4580 ns         1 DVJ      -0.169000
     28 C29          5.0470     1.4220    -1.0600 c          1 DVJ       0.643300
     29 O30          5.3290     2.3020    -1.8670 o          1 DVJ      -0.575100
     30 C31          6.0100     0.3800    -0.6340 cc         1 DVJ      -0.140600
     31 C32          7.3130     0.2940    -1.0930 cd         1 DVJ      -0.094200
     32 C33          8.0700    -0.8030    -0.5400 ca         1 DVJ      -0.091800
     33 C34          9.4030    -1.1430    -0.8120 ca         1 DVJ      -0.059000
     34 C35          9.9570    -2.2630    -0.1600 ca         1 DVJ      -0.117000
     35 C36          9.1770    -3.0170     0.7440 ca         1 DVJ      -0.089000
     36 C37          7.8380    -2.6550     1.0010 ca         1 DVJ      -0.086000
     37 C38          7.3030    -1.5370     0.3430 ca         1 DVJ      -0.143000
     38 S39          5.6360    -0.9230     0.5350 ss         1 DVJ       0.055400
     39 C40         -8.7390     0.0480    -0.5080 c6         1 DVJ       0.224100
     40 H1          -7.6670    -3.6550    -1.3130 h1         1 DVJ       0.071200
     41 H2          -7.8430    -2.6200    -2.7510 h1         1 DVJ       0.071200
     42 H3          -6.0220     1.1460     0.1650 ha         1 DVJ       0.148000
     43 H4          -1.4970     0.4410    -1.1710 ha         1 DVJ       0.198000
     44 H6         -10.0640    -2.8480    -1.8100 h1         1 DVJ       0.049200
     45 H7          -9.4930    -2.5490    -0.1650 h1         1 DVJ       0.049200
     46 H8         -11.3950    -0.6780    -0.1830 h1         1 DVJ       0.036367
     47 H9         -11.2270     0.6190    -1.3910 h1         1 DVJ       0.036367
     48 H10        -11.6780    -1.0200    -1.9060 h1         1 DVJ       0.036367
     49 H11         -3.2620    -1.2130    -0.9930 hn         1 DVJ       0.494000
     50 H16         -2.9350     2.1310     3.1210 hn         1 DVJ       0.351500
     51 H12         -0.6980     4.1420    -0.5980 ha         1 DVJ       0.123000
     52 H13          1.3930     5.0940    -1.5290 ha         1 DVJ       0.121000
     53 H14          3.4810     3.8080    -1.4720 ha         1 DVJ       0.129000
     54 H15          0.4400    -0.3970     0.5450 hc         1 DVJ       0.058200
     55 H17          2.1070    -0.5720     0.1170 hc         1 DVJ       0.058200
     56 H18          2.7710     0.6200     2.2510 h1         1 DVJ       0.030200
     57 H19          1.0530     0.7470     2.6780 h1         1 DVJ       0.030200
     58 H20          2.0400    -1.1120     3.6280 ho         1 DVJ       0.446000
     59 H21          3.7390     0.4790     0.1540 hn         1 DVJ       0.162000
     60 H22          7.7300     0.9980    -1.8100 ha         1 DVJ       0.223000
     61 H23          9.9970    -0.5560    -1.5100 ha         1 DVJ       0.121000
     62 H24         10.9890    -2.5470    -0.3540 ha         1 DVJ       0.118000
     63 H25          9.6090    -3.8800     1.2450 ha         1 DVJ       0.116000
     64 H26          7.2330    -3.2330     1.6960 ha         1 DVJ       0.124000
     65 H27         -9.0650    -0.0090     0.5410 h1         1 DVJ       0.055200
     66 H28         -8.7990     1.1050    -0.8070 h1         1 DVJ       0.055200
@<TRIPOS>BOND
     1     1     9 1   
     2     1    11 1   
     3     1    40 1   
     4     1    41 1   
     5     2     4 2   
     6     2    11 1   
     7     2    39 1   
     8     3     6 2   
     9     3    13 1   
    10     3    16 1   
    11     4     5 1   
    12     4    42 1   
    13     5    12 2   
    14     5    13 1   
    15     6     7 1   
    16     6    43 1   
    17     7    14 2   
    18     7    18 1   
    19     8     9 1   
    20     8    10 1   
    21     8    39 1   
    22     9    44 1   
    23     9    45 1   
    24    10    46 1   
    25    10    47 1   
    26    10    48 1   
    27    11    12 1   
    28    13    49 1   
    29    14    15 1   
    30    15    16 1   
    31    15    50 1   
    32    16    17 2   
    33    18    19 ar  
    34    18    23 ar  
    35    19    20 ar  
    36    19    51 1   
    37    20    21 ar  
    38    20    52 1   
    39    21    22 ar  
    40    21    53 1   
    41    22    23 ar  
    42    22    27 1   
    43    23    24 1   
    44    24    25 1   
    45    24    54 1   
    46    24    55 1   
    47    25    26 1   
    48    25    56 1   
    49    25    57 1   
    50    26    58 1   
    51    27    28 1   
    52    27    59 1   
    53    28    29 2   
    54    28    30 1   
    55    30    31 2   
    56    30    38 1   
    57    31    32 1   
    58    31    60 1   
    59    32    33 ar  
    60    32    37 ar  
    61    33    34 ar  
    62    33    61 1   
    63    34    35 ar  
    64    34    62 1   
    65    35    36 ar  
    66    35    63 1   
    67    36    37 ar  
    68    36    64 1   
    69    37    38 1   
    70    39    65 1   
    71    39    66 1   
@<TRIPOS>SUBSTRUCTURE
     1 DVJ         1 TEMP              0 ****  ****    0 ROOT
