@<TRIPOS>MOLECULE
DVJ
   66    71     1     0     0
SMALL
abcg2


@<TRIPOS>ATOM
      1 C4          -8.1470    -2.6630    -0.3630 c6         1 DVJ       0.092600
      2 C6          -7.2350    -0.3830    -0.6440 cc         1 DVJ      -0.122300
      3 C11         -3.0530     0.2070     0.3970 cc         1 DVJ       0.102800
      4 C7          -5.9820     0.1830    -0.5640 cd         1 DVJ      -0.235000
      5 C8          -5.1570    -0.8810    -0.1600 cd         1 DVJ       0.485900
      6 C12         -1.8390     0.5210    -0.1350 cd         1 DVJ      -0.360600
      7 C13         -1.1090     1.6370     0.3550 cd         1 DVJ       0.432200
      8 N2          -9.4690    -0.9000    -1.3940 n3         1 DVJ      -0.714600
      9 C3          -9.4850    -1.9480    -0.3910 c6         1 DVJ       0.139800
     10 C1         -10.7940    -0.3910    -1.6740 c3         1 DVJ       0.151100
     11 N5          -7.0940    -1.6750    -0.3080 na         1 DVJ       0.144800
     12 N9          -5.8360    -2.0020    -0.0130 nc         1 DVJ      -0.530800
     13 N10         -3.7720    -0.8890     0.0160 nu         1 DVJ      -0.761900
     14 N14         -1.5650     2.4060     1.2930 nc         1 DVJ      -0.437300
     15 N15         -2.7490     2.0810     1.8050 ns         1 DVJ      -0.223900
     16 C17         -3.5560     1.0230     1.5050 c          1 DVJ       0.527200
     17 O18         -4.5830     0.8020     2.1310 o          1 DVJ      -0.528000
     18 C19          0.1800     2.0350    -0.2620 ca         1 DVJ      -0.101900
     19 C20          0.2350     3.2640    -0.9130 ca         1 DVJ      -0.085000
     20 C21          1.4050     3.6880    -1.5210 ca         1 DVJ      -0.103000
     21 C22          2.5270     2.8780    -1.4850 ca         1 DVJ      -0.089000
     22 C23          2.4830     1.6600    -0.8180 ca         1 DVJ      -0.043000
     23 C24          1.3150     1.2160    -0.1900 ca         1 DVJ      -0.071300
     24 C25          1.3230    -0.0470     0.6290 c3         1 DVJ      -0.036100
     25 C26          1.7790     0.2490     2.0530 c3         1 DVJ       0.161600
     26 O27          1.7900    -0.9620     2.7720 oh         1 DVJ      -0.666000
     27 N28          3.6480     0.8590    -0.7860 ns         1 DVJ      -0.169000
     28 C29          4.8010     1.2550    -0.1940 c          1 DVJ       0.643300
     29 O30          4.9190     2.3110     0.4010 o          1 DVJ      -0.575100
     30 C31          5.9360     0.3120    -0.3000 cc         1 DVJ      -0.140600
     31 C32          7.0560     0.3840     0.4610 cd         1 DVJ      -0.094200
     32 C33          7.9980    -0.6470     0.1630 ca         1 DVJ      -0.091800
     33 C34          9.2510    -0.8900     0.7390 ca         1 DVJ      -0.059000
     34 C35         10.0070    -1.9500     0.2860 ca         1 DVJ      -0.117000
     35 C36          9.5350    -2.7820    -0.7400 ca         1 DVJ      -0.089000
     36 C37          8.3030    -2.5650    -1.3250 ca         1 DVJ      -0.086000
     37 C38          7.5420    -1.4940    -0.8640 ca         1 DVJ      -0.143000
     38 S39          5.9840    -1.0050    -1.4390 ss         1 DVJ       0.055400
     39 C40         -8.5760     0.1680    -0.9910 c6         1 DVJ       0.224100
     40 H1          -8.0770    -3.3110     0.5100 h1         1 DVJ       0.071200
     41 H2          -8.0240    -3.2780    -1.2570 h1         1 DVJ       0.071200
     42 H3          -5.7060     1.2030    -0.7740 ha         1 DVJ       0.148000
     43 H4          -1.4290    -0.0640    -0.9490 ha         1 DVJ       0.198000
     44 H6         -10.2560    -2.6770    -0.6400 h1         1 DVJ       0.049200
     45 H7          -9.7240    -1.5540     0.6120 h1         1 DVJ       0.049200
     46 H8         -11.2820     0.0570    -0.7960 h1         1 DVJ       0.036367
     47 H9         -10.7400     0.3710    -2.4520 h1         1 DVJ       0.036367
     48 H10        -11.4310    -1.1980    -2.0380 h1         1 DVJ       0.036367
     49 H11         -3.2730    -1.5470    -0.5660 hn         1 DVJ       0.494000
     50 H16         -3.0480     2.6780     2.5650 hn         1 DVJ       0.351500
     51 H12         -0.6510     3.8830    -0.9540 ha         1 DVJ       0.123000
     52 H13          1.4380     4.6380    -2.0360 ha         1 DVJ       0.121000
     53 H14          3.4370     3.1850    -1.9820 ha         1 DVJ       0.129000
     54 H15          0.3310    -0.4960     0.6660 hc         1 DVJ       0.058200
     55 H17          1.9780    -0.8000     0.1880 hc         1 DVJ       0.058200
     56 H18          2.7720     0.7160     2.0310 h1         1 DVJ       0.030200
     57 H19          1.0960     0.9830     2.5000 h1         1 DVJ       0.030200
     58 H20          2.0910    -0.7760     3.6670 ho         1 DVJ       0.446000
     59 H21          3.5690    -0.0860    -1.1320 hn         1 DVJ       0.162000
     60 H22          7.2070     1.1370     1.2210 ha         1 DVJ       0.223000
     61 H23          9.6190    -0.2490     1.5300 ha         1 DVJ       0.121000
     62 H24         10.9770    -2.1460     0.7240 ha         1 DVJ       0.118000
     63 H25         10.1460    -3.6070    -1.0820 ha         1 DVJ       0.116000
     64 H26          7.9420    -3.2080    -2.1170 ha         1 DVJ       0.124000
     65 H27         -8.9700     0.7240    -0.1220 h1         1 DVJ       0.055200
     66 H28         -8.4740     0.8910    -1.8030 h1         1 DVJ       0.055200
@<TRIPOS>BOND
     1     1     9 1   
     2     1    11 1   
     3     1    40 1   
     4     1    41 1   
     5     2     4 2   
     6     2    11 1   
     7     2    39 1   
     8     3     6 2   
     9     3    13 1   
    10     3    16 1   
    11     4     5 1   
    12     4    42 1   
    13     5    12 2   
    14     5    13 1   
    15     6     7 1   
    16     6    43 1   
    17     7    14 2   
    18     7    18 1   
    19     8     9 1   
    20     8    10 1   
    21     8    39 1   
    22     9    44 1   
    23     9    45 1   
    24    10    46 1   
    25    10    47 1   
    26    10    48 1   
    27    11    12 1   
    28    13    49 1   
    29    14    15 1   
    30    15    16 1   
    31    15    50 1   
    32    16    17 2   
    33    18    19 ar  
    34    18    23 ar  
    35    19    20 ar  
    36    19    51 1   
    37    20    21 ar  
    38    20    52 1   
    39    21    22 ar  
    40    21    53 1   
    41    22    23 ar  
    42    22    27 1   
    43    23    24 1   
    44    24    25 1   
    45    24    54 1   
    46    24    55 1   
    47    25    26 1   
    48    25    56 1   
    49    25    57 1   
    50    26    58 1   
    51    27    28 1   
    52    27    59 1   
    53    28    29 2   
    54    28    30 1   
    55    30    31 2   
    56    30    38 1   
    57    31    32 1   
    58    31    60 1   
    59    32    33 ar  
    60    32    37 ar  
    61    33    34 ar  
    62    33    61 1   
    63    34    35 ar  
    64    34    62 1   
    65    35    36 ar  
    66    35    63 1   
    67    36    37 ar  
    68    36    64 1   
    69    37    38 1   
    70    39    65 1   
    71    39    66 1   
@<TRIPOS>SUBSTRUCTURE
     1 DVJ         1 TEMP              0 ****  ****    0 ROOT
