@<TRIPOS>MOLECULE
DVK
   37    37     1     0     0
SMALL
abcg2


@<TRIPOS>ATOM
      1 C1           0.6840     1.3370    -0.1500 c6         1 DVK       0.167800
      2 C10         -5.2620    -0.5020    -0.2840 c3         1 DVK       0.149800
      3 C2           0.1600    -0.8730     0.5180 c6         1 DVK       0.167800
      4 C3           1.9990     0.8540    -0.7310 c6         1 DVK       0.165800
      5 C4           1.4760    -1.3600    -0.0570 c6         1 DVK       0.165800
      6 C7          -2.7580    -0.1460    -0.2290 c3         1 DVK      -0.077400
      7 C8          -4.1180     0.3530     0.2390 c3         1 DVK      -0.079400
      8 C9           4.9160     0.1450    -0.2920 c3         1 DVK       0.165600
      9 N1          -0.3160     0.2900    -0.2050 n3         1 DVK      -0.728600
     10 N2           2.4790    -0.3150    -0.0210 n3         1 DVK      -0.704600
     11 N3          -6.5460    -0.0180     0.2020 n8         1 DVK      -0.996200
     12 O1           5.0720     0.3830     1.0880 oh         1 DVK      -0.641000
     13 H1           0.8540     1.6930     0.8810 h1         1 DVK       0.037950
     14 H2           0.3380     2.1950    -0.7310 h1         1 DVK       0.037950
     15 H3          -5.1970    -0.5460    -1.3820 h1         1 DVK       0.026700
     16 H4          -5.1300    -1.5290     0.0680 h1         1 DVK       0.026700
     17 H5          -0.5700    -1.6810     0.4480 h1         1 DVK       0.037950
     18 H6           0.2950    -0.6510     1.5920 h1         1 DVK       0.037950
     19 H7           1.8610     0.6460    -1.8070 h1         1 DVK       0.035200
     20 H8           2.7280     1.6620    -0.6530 h1         1 DVK       0.035200
     21 H9           1.8260    -2.2130     0.5300 h1         1 DVK       0.035200
     22 H10          1.3030    -1.7260    -1.0850 h1         1 DVK       0.035200
     23 H11         -1.7810     1.7500    -0.1450 h1         1 DVK       0.029700
     24 H12         -1.6550     0.8360     1.3500 h1         1 DVK       0.029700
     25 H13          3.7140    -1.0250    -1.5970 h1         1 DVK       0.036200
     26 H14          3.9740    -1.7440    -0.0140 h1         1 DVK       0.036200
     27 H15         -2.7310    -0.1870    -1.3220 hc         1 DVK       0.044700
     28 H16         -2.6160    -1.1730     0.1210 hc         1 DVK       0.044700
     29 H17         -4.2610     1.3890    -0.0900 hc         1 DVK       0.045200
     30 H18         -4.1570     0.3680     1.3330 hc         1 DVK       0.045200
     31 H19          5.8040    -0.3310    -0.7270 h1         1 DVK       0.014200
     32 H20          4.7680     1.0800    -0.8470 h1         1 DVK       0.014200
     33 H23         -6.7380     0.8880    -0.2090 hn         1 DVK       0.390500
     34 H24         -7.2830    -0.6250    -0.1330 hn         1 DVK       0.390500
     35 H26          5.8370     0.9530     1.2040 ho         1 DVK       0.435000
     36 C5          -1.6180     0.7430     0.2500 c3         1 DVK       0.174800
     37 C6           3.7520    -0.7980    -0.5170 c3         1 DVK       0.170800
@<TRIPOS>BOND
     1     1     4 1   
     2     1     9 1   
     3     1    13 1   
     4     1    14 1   
     5     2     7 1   
     6     2    11 1   
     7     2    15 1   
     8     2    16 1   
     9     3     5 1   
    10     3     9 1   
    11     3    17 1   
    12     3    18 1   
    13     4    10 1   
    14     4    19 1   
    15     4    20 1   
    16     5    10 1   
    17     5    21 1   
    18     5    22 1   
    19     6     7 1   
    20     6    27 1   
    21     6    28 1   
    22     6    36 1   
    23     7    29 1   
    24     7    30 1   
    25     8    12 1   
    26     8    31 1   
    27     8    32 1   
    28     8    37 1   
    29     9    36 1   
    30    10    37 1   
    31    11    33 1   
    32    11    34 1   
    33    12    35 1   
    34    23    36 1   
    35    24    36 1   
    36    25    37 1   
    37    26    37 1   
@<TRIPOS>SUBSTRUCTURE
     1 DVK         1 TEMP              0 ****  ****    0 ROOT
