@<TRIPOS>MOLECULE
DVK
   37    37     1     0     0
SMALL
No Charge or Current Charge


@<TRIPOS>ATOM
      1 C1           0.6940     1.3680    -0.1420 c6         1 DVK       0.167800
      2 C10         -5.4020    -0.5430    -0.1220 c3         1 DVK       0.149800
      3 C2           0.1120    -0.9570     0.3400 c6         1 DVK       0.167800
      4 C3           2.0940     0.9120    -0.6670 c6         1 DVK       0.165800
      5 C4           1.5130    -1.4130    -0.1830 c6         1 DVK       0.165800
      6 C7          -2.8550    -0.1810    -0.1620 c3         1 DVK      -0.077400
      7 C8          -4.2350     0.4120     0.2040 c3         1 DVK      -0.079400
      8 C9           5.1000     0.1460    -0.2340 c3         1 DVK       0.165600
      9 N1          -0.3550     0.3140    -0.3030 n3         1 DVK      -0.728600
     10 N2           2.5590    -0.3570    -0.0250 n3         1 DVK      -0.704600
     11 N3          -6.7020     0.0490     0.2410 n8         1 DVK      -0.996200
     12 O1           5.3150     0.3640     1.1720 oh         1 DVK      -0.641000
     13 H1           0.7930     1.6430     0.9180 h1         1 DVK       0.037950
     14 H2           0.4010     2.2810    -0.6820 h1         1 DVK       0.037950
     15 H3          -5.4060    -0.7700    -1.1970 h1         1 DVK       0.026700
     16 H4          -5.2770    -1.4830     0.4330 h1         1 DVK       0.026700
     17 H5          -0.5980    -1.7740     0.1500 h1         1 DVK       0.037950
     18 H6           0.1710    -0.8290     1.4310 h1         1 DVK       0.037950
     19 H7           2.0340     0.7840    -1.7580 h1         1 DVK       0.035200
     20 H8           2.8080     1.7260    -0.4780 h1         1 DVK       0.035200
     21 H9           1.8080    -2.3230     0.3590 h1         1 DVK       0.035200
     22 H10          1.4150    -1.6890    -1.2440 h1         1 DVK       0.035200
     23 H11         -1.9090     1.7440    -0.3000 h1         1 DVK       0.029700
     24 H12         -1.6610     0.9420     1.2520 h1         1 DVK       0.029700
     25 H13          3.8570    -1.0050    -1.5780 h1         1 DVK       0.036200
     26 H14          4.1410    -1.7760    -0.0230 h1         1 DVK       0.036200
     27 H15         -2.8360    -0.4140    -1.2340 hc         1 DVK       0.044700
     28 H16         -2.7260    -1.1250     0.3780 hc         1 DVK       0.044700
     29 H17         -4.3760     1.3550    -0.3380 hc         1 DVK       0.045200
     30 H18         -4.2500     0.6490     1.2750 hc         1 DVK       0.045200
     31 H19          6.0000    -0.2970    -0.6800 h1         1 DVK       0.014200
     32 H20          4.9260     1.1020    -0.7440 h1         1 DVK       0.014200
     33 H23         -6.8620     0.8840    -0.3370 hn         1 DVK       0.390500
     34 H24         -7.4530    -0.5900    -0.0490 hn         1 DVK       0.390500
     35 H26          6.0510     1.0100     1.2510 ho         1 DVK       0.435000
     36 C5          -1.6850     0.7750     0.1670 c3         1 DVK       0.174800
     37 C6           3.8990    -0.8140    -0.4960 c3         1 DVK       0.170800
@<TRIPOS>BOND
     1     1     4 1   
     2     1     9 1   
     3     1    13 1   
     4     1    14 1   
     5     2     7 1   
     6     2    11 1   
     7     2    15 1   
     8     2    16 1   
     9     3     5 1   
    10     3     9 1   
    11     3    17 1   
    12     3    18 1   
    13     4    10 1   
    14     4    19 1   
    15     4    20 1   
    16     5    10 1   
    17     5    21 1   
    18     5    22 1   
    19     6     7 1   
    20     6    27 1   
    21     6    28 1   
    22     6    36 1   
    23     7    29 1   
    24     7    30 1   
    25     8    12 1   
    26     8    31 1   
    27     8    32 1   
    28     8    37 1   
    29     9    36 1   
    30    10    37 1   
    31    11    33 1   
    32    11    34 1   
    33    12    35 1   
    34    23    36 1   
    35    24    36 1   
    36    25    37 1   
    37    26    37 1   
@<TRIPOS>SUBSTRUCTURE
     1 DVK         1 TEMP              0 ****  ****    0 ROOT
