@<TRIPOS>MOLECULE
DVL
   65    69     1     0     0
SMALL
abcg2


@<TRIPOS>ATOM
      1 C10          4.4040     5.9500    87.6270 ca         1 DVL      -0.137900
      2 C13          1.7440     5.7950    88.4190 ca         1 DVL      -0.051000
      3 C15          4.0650     6.2450    88.9540 ca         1 DVL       0.190100
      4 C20          6.0690     4.3640    89.9860 ca         1 DVL      -0.174300
      5 C21          7.4280     4.3200    89.6720 ca         1 DVL      -0.059000
      6 C22          7.9330     3.3520    88.8220 ca         1 DVL      -0.150500
      7 C24          5.7250     2.4050    88.5910 ca         1 DVL      -0.150500
      8 C26          5.0060    -0.5520    85.0220 c6         1 DVL       0.106300
      9 C28          6.2440    -0.4700    87.1970 c6         1 DVL       0.082300
     10 C01          9.5990     4.8910    84.7930 ca         1 DVL      -0.117000
     11 C02         10.2140     5.9260    85.5150 ca         1 DVL      -0.104000
     12 C03          9.5000     6.6800    86.4340 ca         1 DVL      -0.075000
     13 C04          8.1510     6.3830    86.6190 ca         1 DVL      -0.197000
     14 C05          7.5220     5.3460    85.8950 ca         1 DVL       0.098400
     15 C06          8.2590     4.5960    84.9740 ca         1 DVL      -0.051000
     16 C08          5.7880     5.9590    87.1380 cc         1 DVL       0.452800
     17 C11          3.3990     5.5630    86.7320 ca         1 DVL      -0.023000
     18 C12          2.0660     5.4630    87.1080 ca         1 DVL      -0.108300
     19 C14          2.7140     6.1820    89.3490 ca         1 DVL      -0.229600
     20 C19          5.4860     5.5150    90.7420 c3         1 DVL       0.228900
     21 C23          7.0760     2.4080    88.2540 ca         1 DVL       0.150100
     22 C25          5.2400     3.3760    89.4580 ca         1 DVL      -0.059000
     23 C27          4.8930    -0.8060    86.5250 c6         1 DVL       0.132300
     24 C29          6.9260     0.7240    86.5070 c6         1 DVL       0.404300
     25 C31          5.3620     0.9220    84.7070 c6         1 DVL       0.179300
     26 C32          4.2030     1.8250    84.3360 c3         1 DVL       0.171600
     27 C37          2.2150     6.5340    90.6890 c          1 DVL       0.587500
     28 N09          6.1920     5.1540    86.2020 nd         1 DVL      -0.535100
     29 O16          7.6790     1.5420    87.3720 os         1 DVL      -0.335100
     30 O18          5.0480     6.5850    89.8320 os         1 DVL      -0.370100
     31 O30          6.0020     1.5390    85.8290 os         1 DVL      -0.460000
     32 O33          3.8310    -0.9010    84.2990 oh         1 DVL      -0.716000
     33 O34          3.8190    -0.1210    87.1490 oh         1 DVL      -0.676000
     34 O35          7.1700    -1.5490    87.0930 oh         1 DVL      -0.721000
     35 O36          3.2900     1.9470    85.4360 oh         1 DVL      -0.727000
     36 O38          2.8660     6.8890    91.6520 o          1 DVL      -0.512100
     37 S07          7.0100     7.0840    87.7230 ss         1 DVL       0.077800
     38 H1           0.7080     5.7620    88.7410 ha         1 DVL       0.113000
     39 H2           0.9050     3.9100    86.1870 hc         1 DVL       0.042700
     40 H3           0.0460     5.4390    86.3620 hc         1 DVL       0.042700
     41 H4           1.2880     5.2530    85.1120 hc         1 DVL       0.042700
     42 H5           8.0940     5.0760    90.0710 ha         1 DVL       0.115000
     43 H6           8.9810     3.3370    88.5550 ha         1 DVL       0.135000
     44 H7           5.0400     1.6910    88.1650 ha         1 DVL       0.135000
     45 H8           5.8400    -1.1720    84.6780 h1         1 DVL       0.048700
     46 H9           6.0480    -0.2420    88.2450 h1         1 DVL       0.076700
     47 H10         10.1840     4.3160    84.0870 ha         1 DVL       0.114000
     48 H11         11.2640     6.1370    85.3560 ha         1 DVL       0.113000
     49 H12          9.9790     7.4720    86.9950 ha         1 DVL       0.121000
     50 H13          7.7790     3.7940    84.4280 ha         1 DVL       0.128000
     51 H14          3.6870     5.3280    85.7160 ha         1 DVL       0.134000
     52 H15          4.6310     5.2170    91.3460 h1         1 DVL       0.067700
     53 H16          6.2230     6.0030    91.3750 h1         1 DVL       0.067700
     54 H17          4.1830     3.3820    89.6950 ha         1 DVL       0.115000
     55 H18          4.7230    -1.8780    86.6740 h1         1 DVL       0.054700
     56 H19          7.6690     0.3280    85.8060 h2         1 DVL       0.081700
     57 H21          4.6060     2.8110    84.0930 h1         1 DVL       0.053200
     58 H22          3.7010     1.4190    83.4600 h1         1 DVL       0.053200
     59 H23          1.1140     6.4580    90.7660 h4         1 DVL      -0.016800
     60 H24          3.7360    -1.8620    84.3270 ho         1 DVL       0.513000
     61 H25          3.5470     0.6370    86.5920 ho         1 DVL       0.492000
     62 H26          6.8570    -2.2740    87.6500 ho         1 DVL       0.510000
     63 H27          2.3970     2.0730    85.0930 ho         1 DVL       0.510000
     64 C17          1.0170     4.9970    86.1360 c3         1 DVL      -0.039800
     65 H20          6.0540     0.9310    83.8550 h1         1 DVL       0.052700
@<TRIPOS>BOND
     1     1     3 ar  
     2     1    16 1   
     3     1    17 ar  
     4     2    18 ar  
     5     2    19 ar  
     6     2    38 1   
     7     3    19 ar  
     8     3    30 1   
     9     4     5 ar  
    10     4    20 1   
    11     4    22 ar  
    12     5     6 ar  
    13     5    42 1   
    14     6    21 ar  
    15     6    43 1   
    16     7    21 ar  
    17     7    22 ar  
    18     7    44 1   
    19     8    23 1   
    20     8    25 1   
    21     8    32 1   
    22     8    45 1   
    23     9    23 1   
    24     9    24 1   
    25     9    34 1   
    26     9    46 1   
    27    10    11 ar  
    28    10    15 ar  
    29    10    47 1   
    30    11    12 ar  
    31    11    48 1   
    32    12    13 ar  
    33    12    49 1   
    34    13    14 ar  
    35    13    37 1   
    36    14    15 ar  
    37    14    28 1   
    38    15    50 1   
    39    16    28 2   
    40    16    37 1   
    41    17    18 ar  
    42    17    51 1   
    43    18    64 1   
    44    19    27 1   
    45    20    30 1   
    46    20    52 1   
    47    20    53 1   
    48    21    29 1   
    49    22    54 1   
    50    23    33 1   
    51    23    55 1   
    52    24    29 1   
    53    24    31 1   
    54    24    56 1   
    55    25    26 1   
    56    25    31 1   
    57    25    65 1   
    58    26    35 1   
    59    26    57 1   
    60    26    58 1   
    61    27    36 2   
    62    27    59 1   
    63    32    60 1   
    64    33    61 1   
    65    34    62 1   
    66    35    63 1   
    67    39    64 1   
    68    40    64 1   
    69    41    64 1   
@<TRIPOS>SUBSTRUCTURE
     1 DVL         1 TEMP              0 ****  ****    0 ROOT
