@<TRIPOS>MOLECULE
DVL
   65    69     1     0     0
SMALL
No Charge or Current Charge


@<TRIPOS>ATOM
      1 C10          4.1430     6.4490    87.8460 ca         1 DVL      -0.137900
      2 C13          1.5430     6.8320    88.8740 ca         1 DVL      -0.051000
      3 C15          3.9410     6.5870    89.2410 ca         1 DVL       0.190100
      4 C20          5.9240     4.2580    89.8570 ca         1 DVL      -0.174300
      5 C21          7.3250     4.2400    89.7310 ca         1 DVL      -0.059000
      6 C22          7.9430     3.3520    88.8350 ca         1 DVL      -0.150500
      7 C24          5.7700     2.4810    88.1890 ca         1 DVL      -0.150500
      8 C26          5.8620    -1.1710    84.7930 c6         1 DVL       0.106300
      9 C28          6.6480    -0.5700    87.1790 c6         1 DVL       0.082300
     10 C01          8.9100     4.4740    84.7170 ca         1 DVL      -0.117000
     11 C02          9.7420     5.3370    85.4600 ca         1 DVL      -0.104000
     12 C03          9.1860     6.1820    86.4400 ca         1 DVL      -0.075000
     13 C04          7.7990     6.1390    86.6520 ca         1 DVL      -0.197000
     14 C05          6.9750     5.2980    85.9330 ca         1 DVL       0.098400
     15 C06          7.5200     4.4540    84.9520 ca         1 DVL      -0.051000
     16 C08          5.4710     6.1910    87.2750 cc         1 DVL       0.452800
     17 C11          3.0220     6.4510    86.9900 ca         1 DVL      -0.023000
     18 C12          1.7270     6.6480    87.4950 ca         1 DVL      -0.108300
     19 C14          2.6400     6.8070    89.7580 ca         1 DVL      -0.229600
     20 C19          5.2560     5.2520    90.8000 c3         1 DVL       0.228900
     21 C23          7.1780     2.4690    88.0550 ca         1 DVL       0.150100
     22 C25          5.1500     3.3690    89.0870 ca         1 DVL      -0.059000
     23 C27          5.5840    -1.3520    86.3220 c6         1 DVL       0.132300
     24 C29          7.2520     0.6320    86.3620 c6         1 DVL       0.404300
     25 C31          5.8870     0.3580    84.3780 c6         1 DVL       0.179300
     26 C32          4.5240     0.9160    83.8460 c3         1 DVL       0.171600
     27 C37          2.3500     7.0310    91.2230 c          1 DVL       0.587500
     28 N09          5.6240     5.3370    86.2480 nd         1 DVL      -0.535100
     29 O16          7.8750     1.6450    87.1860 os         1 DVL      -0.335100
     30 O18          5.0150     6.4850    90.0940 os         1 DVL      -0.370100
     31 O30          6.2520     1.2030    85.5040 os         1 DVL      -0.460000
     32 O33          4.9600    -1.9640    83.9930 oh         1 DVL      -0.716000
     33 O34          4.2450    -0.9180    86.6320 oh         1 DVL      -0.676000
     34 O35          7.7020    -1.4450    87.6580 oh         1 DVL      -0.721000
     35 O36          3.4810     0.9230    84.8470 oh         1 DVL      -0.727000
     36 O38          3.1940     7.2150    92.0930 o          1 DVL      -0.512100
     37 S07          6.9090     7.0950    87.8250 ss         1 DVL       0.077800
     38 H1           0.5370     6.9940    89.2590 ha         1 DVL       0.113000
     39 H2           0.1240     5.6500    86.4280 hc         1 DVL       0.042700
     40 H3          -0.2730     7.3010    86.9350 hc         1 DVL       0.042700
     41 H4           0.8060     7.0360    85.5610 hc         1 DVL       0.042700
     42 H5           7.9360     4.9250    90.3150 ha         1 DVL       0.115000
     43 H6           9.0250     3.3560    88.7340 ha         1 DVL       0.135000
     44 H7           5.1360     1.8300    87.5990 ha         1 DVL       0.135000
     45 H8           6.8810    -1.5490    84.6210 h1         1 DVL       0.048700
     46 H9           6.1230    -0.1540    88.0510 h1         1 DVL       0.076700
     47 H10          9.3410     3.8200    83.9620 ha         1 DVL       0.114000
     48 H11         10.8150     5.3500    85.2780 ha         1 DVL       0.113000
     49 H12          9.8190     6.8500    87.0200 ha         1 DVL       0.121000
     50 H13          6.8760     3.7850    84.3880 ha         1 DVL       0.128000
     51 H14          3.1560     6.3080    85.9190 ha         1 DVL       0.134000
     52 H15          4.3220     4.8320    91.1950 h1         1 DVL       0.067700
     53 H16          5.9200     5.4350    91.6550 h1         1 DVL       0.067700
     54 H17          4.0650     3.3780    89.1680 ha         1 DVL       0.115000
     55 H18          5.6740    -2.4220    86.5610 h1         1 DVL       0.054700
     56 H19          8.0470     0.2210    85.7200 h2         1 DVL       0.081700
     57 H21          4.7080     1.9390    83.4910 h1         1 DVL       0.053200
     58 H22          4.2170     0.3290    82.9690 h1         1 DVL       0.053200
     59 H23          1.2700     7.0460    91.4910 h4         1 DVL      -0.016800
     60 H24          4.1130    -2.0100    84.4970 ho         1 DVL       0.513000
     61 H25          4.0380    -0.1490    86.0250 ho         1 DVL       0.492000
     62 H26          7.3200    -2.0010    88.3790 ho         1 DVL       0.510000
     63 H27          2.7410     1.4660    84.4830 ho         1 DVL       0.510000
     64 C17          0.5310     6.6600    86.5540 c3         1 DVL      -0.039800
     65 H20          6.6400     0.4890    83.5870 h1         1 DVL       0.052700
@<TRIPOS>BOND
     1     1     3 ar  
     2     1    16 1   
     3     1    17 ar  
     4     2    18 ar  
     5     2    19 ar  
     6     2    38 1   
     7     3    19 ar  
     8     3    30 1   
     9     4     5 ar  
    10     4    20 1   
    11     4    22 ar  
    12     5     6 ar  
    13     5    42 1   
    14     6    21 ar  
    15     6    43 1   
    16     7    21 ar  
    17     7    22 ar  
    18     7    44 1   
    19     8    23 1   
    20     8    25 1   
    21     8    32 1   
    22     8    45 1   
    23     9    23 1   
    24     9    24 1   
    25     9    34 1   
    26     9    46 1   
    27    10    11 ar  
    28    10    15 ar  
    29    10    47 1   
    30    11    12 ar  
    31    11    48 1   
    32    12    13 ar  
    33    12    49 1   
    34    13    14 ar  
    35    13    37 1   
    36    14    15 ar  
    37    14    28 1   
    38    15    50 1   
    39    16    28 2   
    40    16    37 1   
    41    17    18 ar  
    42    17    51 1   
    43    18    64 1   
    44    19    27 1   
    45    20    30 1   
    46    20    52 1   
    47    20    53 1   
    48    21    29 1   
    49    22    54 1   
    50    23    33 1   
    51    23    55 1   
    52    24    29 1   
    53    24    31 1   
    54    24    56 1   
    55    25    26 1   
    56    25    31 1   
    57    25    65 1   
    58    26    35 1   
    59    26    57 1   
    60    26    58 1   
    61    27    36 2   
    62    27    59 1   
    63    32    60 1   
    64    33    61 1   
    65    34    62 1   
    66    35    63 1   
    67    39    64 1   
    68    40    64 1   
    69    41    64 1   
@<TRIPOS>SUBSTRUCTURE
     1 DVL         1 TEMP              0 ****  ****    0 ROOT
