@<TRIPOS>MOLECULE
DVM
   73    75     1     0     0
SMALL
bcc


@<TRIPOS>ATOM
      1 C13         -3.2150    -0.2000    -1.0940 c6         1 DVM       0.302900
      2 N21          4.4070    -1.6690     2.4300 n8         1 DVM      -0.860800
      3 C22          0.6670     2.3570    -0.8330 c6         1 DVM      -0.129400
      4 C23         -4.5360     0.5220    -0.8050 c6         1 DVM       0.158100
      5 C42          1.4530     0.1440     0.0090 c6         1 DVM       0.136100
      6 O            3.0460     3.9850     0.8320 o          1 DVM      -0.613100
      7 CH3          5.0990     3.2110    -0.1240 c3         1 DVM      -0.176100
      8 C11          3.1150    -1.5090     0.3620 c6         1 DVM       0.362900
      9 C12         -0.7800     2.0100    -0.4920 c6         1 DVM       0.137500
     10 C21          3.6520    -2.4280     1.4490 c6         1 DVM       0.138500
     11 C31          4.4420    -3.5340     0.7400 c6         1 DVM      -0.069200
     12 C32          1.6520     1.6560     0.1010 c6         1 DVM       0.115700
     13 C33         -5.2050    -0.0360     0.4570 c6         1 DVM       0.192500
     14 C41          5.3480    -2.9430    -0.2990 c2         1 DVM      -0.276200
     15 C43         -5.3140    -1.5710     0.3730 c6         1 DVM       0.095800
     16 C51          5.1990    -1.6980    -0.7500 c2         1 DVM       0.101900
     17 C52          0.0190    -0.2240     0.3700 c6         1 DVM       0.131100
     18 C53         -3.9450    -2.1500     0.0240 c6         1 DVM       0.113400
     19 C61          6.0920    -1.0150    -1.7360 c3         1 DVM       0.196000
     20 C62         -0.9730     0.4960    -0.5400 c6         1 DVM       0.126100
     21 C83         -5.7830    -2.1740     1.6930 c3         1 DVM      -0.125100
     22 N12         -1.7570     2.6580    -1.3580 n8         1 DVM      -0.891800
     23 N32          3.0270     1.9820    -0.2050 ns         1 DVM      -0.564900
     24 N33         -6.4790     0.6240     0.6810 n7         1 DVM      -0.809200
     25 N61          5.3780    -0.7060    -2.9690 n8         1 DVM      -0.876800
     26 O11          2.3400    -0.5080     0.8970 os         1 DVM      -0.358600
     27 O23         -4.3610     1.9050    -0.6740 oh         1 DVM      -0.613800
     28 O43         -6.2420    -1.8480    -0.6640 oh         1 DVM      -0.586800
     29 O51          4.1940    -0.8800    -0.3310 os         1 DVM      -0.395900
     30 O53         -3.3920    -1.5830    -1.1460 os         1 DVM      -0.405600
     31 O62         -2.2750     0.1510    -0.1170 os         1 DVM      -0.444600
     32 H1          -2.8490     0.0790    -2.0890 h2         1 DVM       0.071700
     33 H3           5.3090    -1.4070     2.0500 hn         1 DVM       0.340800
     34 H5           0.8810     2.0700    -1.8690 hc         1 DVM       0.057700
     35 H6           0.8050     3.4380    -0.7650 hc         1 DVM       0.057700
     36 H7          -5.1930     0.3060    -1.6600 h1         1 DVM       0.068700
     37 H8           1.6420    -0.1740    -1.0280 h1         1 DVM       0.056700
     38 H9           5.2340     3.9690    -0.8970 hc         1 DVM       0.058033
     39 H10          5.6560     3.5370     0.7530 hc         1 DVM       0.058033
     40 H11          5.5360     2.2800    -0.4830 hc         1 DVM       0.058033
     41 H12          2.5540    -2.1090    -0.3690 h2         1 DVM       0.054700
     42 H13         -0.9900     2.3460     0.5290 h1         1 DVM       0.086700
     43 H14          2.7910    -2.8710     1.9540 h1         1 DVM       0.081700
     44 H15          5.0240    -4.0930     1.4790 hc         1 DVM       0.056200
     45 H16          3.7610    -4.2610     0.2840 hc         1 DVM       0.056200
     46 H17          1.4450     1.9700     1.1300 h1         1 DVM       0.085700
     47 H18         -4.5440     0.1890     1.3030 h1         1 DVM       0.062700
     48 H19          6.1630    -3.5360    -0.6930 ha         1 DVM       0.141000
     49 H22         -0.1650     0.1010     1.4070 h1         1 DVM       0.060700
     50 H23         -3.2720    -2.0330     0.8830 h1         1 DVM       0.048700
     51 H24         -4.0300    -3.2230    -0.1670 h1         1 DVM       0.048700
     52 H25          6.5350    -0.1310    -1.2520 h1         1 DVM       0.044200
     53 H26          6.9200    -1.6840    -1.9710 h1         1 DVM       0.044200
     54 H27         -0.8040     0.1490    -1.5720 h1         1 DVM       0.048700
     55 H28         -6.7760    -1.8120     1.9580 hc         1 DVM       0.045033
     56 H29         -5.8340    -3.2640     1.6270 hc         1 DVM       0.045033
     57 H30         -5.1020    -1.9250     2.5070 hc         1 DVM       0.045033
     58 H34         -1.7100     3.6630    -1.2320 hn         1 DVM       0.352800
     59 H35         -1.5300     2.4890    -2.3330 hn         1 DVM       0.352800
     60 H37          3.5940     1.2650    -0.6280 hn         1 DVM       0.327500
     61 H38         -7.2430     0.0190     0.4120 hn         1 DVM       0.371800
     62 H40          4.6630    -0.0120    -2.7880 hn         1 DVM       0.340800
     63 H41          6.0210    -0.2640    -3.6130 hn         1 DVM       0.340800
     64 H43         -3.4460     2.1650    -0.9390 ho         1 DVM       0.444000
     65 H44         -6.4500    -2.7880    -0.6500 ho         1 DVM       0.401000
     66 C93         -6.6860     1.1430     2.0150 c3         1 DVM       0.162100
     67 O52         -0.0960    -1.6180     0.2520 oh         1 DVM      -0.596800
     68 C            3.6340     3.1010     0.2220 c          1 DVM       0.671100
     69 H2           4.6080    -2.2670     3.2210 hn         1 DVM       0.340800
     70 H31         -7.6780     1.5910     2.0810 h1         1 DVM       0.024700
     71 H32         -6.6030     0.4020     2.8220 h1         1 DVM       0.024700
     72 H33         -5.9600     1.9310     2.2220 h1         1 DVM       0.024700
     73 H45         -0.9780    -1.8750     0.5390 ho         1 DVM       0.422000
@<TRIPOS>BOND
     1     1     4 1   
     2     1    30 1   
     3     1    31 1   
     4     1    32 1   
     5     2    10 1   
     6     2    33 1   
     7     2    69 1   
     8     3     9 1   
     9     3    12 1   
    10     3    34 1   
    11     3    35 1   
    12     4    13 1   
    13     4    27 1   
    14     4    36 1   
    15     5    12 1   
    16     5    17 1   
    17     5    26 1   
    18     5    37 1   
    19     6    68 2   
    20     7    38 1   
    21     7    39 1   
    22     7    40 1   
    23     7    68 1   
    24     8    10 1   
    25     8    26 1   
    26     8    29 1   
    27     8    41 1   
    28     9    20 1   
    29     9    22 1   
    30     9    42 1   
    31    10    11 1   
    32    10    43 1   
    33    11    14 1   
    34    11    44 1   
    35    11    45 1   
    36    12    23 1   
    37    12    46 1   
    38    13    15 1   
    39    13    24 1   
    40    13    47 1   
    41    14    16 2   
    42    14    48 1   
    43    15    18 1   
    44    15    21 1   
    45    15    28 1   
    46    16    19 1   
    47    16    29 1   
    48    17    20 1   
    49    17    49 1   
    50    17    67 1   
    51    18    30 1   
    52    18    50 1   
    53    18    51 1   
    54    19    25 1   
    55    19    52 1   
    56    19    53 1   
    57    20    31 1   
    58    20    54 1   
    59    21    55 1   
    60    21    56 1   
    61    21    57 1   
    62    22    58 1   
    63    22    59 1   
    64    23    60 1   
    65    23    68 1   
    66    24    61 1   
    67    24    66 1   
    68    25    62 1   
    69    25    63 1   
    70    27    64 1   
    71    28    65 1   
    72    66    70 1   
    73    66    71 1   
    74    66    72 1   
    75    67    73 1   
@<TRIPOS>SUBSTRUCTURE
     1 DVM         1 TEMP              0 ****  ****    0 ROOT
