@<TRIPOS>MOLECULE
DVM
   73    75     1     0     0
SMALL
No Charge or Current Charge


@<TRIPOS>ATOM
      1 C13         -3.1710    -0.0430    -0.9970 c6         1 DVM       0.349300
      2 N21          5.0990    -1.4020     2.3900 n8         1 DVM      -0.971200
      3 C22          0.6280     2.5490    -0.6390 c6         1 DVM      -0.129400
      4 C23         -4.4530     0.7490    -0.5510 c6         1 DVM       0.181300
      5 C42          1.6540     0.3710     0.2000 c6         1 DVM       0.159300
      6 O            2.9790     4.4550     0.9140 o          1 DVM      -0.613100
      7 CH3          5.0100     3.8630    -0.2470 c3         1 DVM      -0.176100
      8 C11          3.2460    -1.4520     0.5850 c6         1 DVM       0.409300
      9 C12         -0.7920     2.0440    -0.2840 c6         1 DVM       0.137500
     10 C21          3.9950    -2.1950     1.7550 c6         1 DVM       0.138500
     11 C31          4.5780    -3.5070     1.1750 c6         1 DVM      -0.069200
     12 C32          1.7130     1.9260     0.2820 c6         1 DVM       0.115700
     13 C33         -5.2700    -0.0620     0.5280 c6         1 DVM       0.192500
     14 C41          5.2980    -3.2360    -0.1420 c2         1 DVM      -0.326200
     15 C43         -5.4860    -1.5600     0.0610 c6         1 DVM       0.119000
     16 C51          5.0860    -2.1270    -0.8740 c2         1 DVM       0.101900
     17 C52          0.2260    -0.1360     0.5940 c6         1 DVM       0.154300
     18 C53         -4.0980    -2.1650    -0.3030 c6         1 DVM       0.136600
     19 C61          5.8620    -1.7480    -2.1330 c3         1 DVM       0.196000
     20 C62         -0.8530     0.4760    -0.3450 c6         1 DVM       0.149300
     21 C83         -6.1560    -2.4360     1.1590 c3         1 DVM      -0.125100
     22 N12         -1.7650     2.7130    -1.1870 n8         1 DVM      -1.002200
     23 N32          3.0480     2.4170    -0.1010 ns         1 DVM      -0.497900
     24 N33         -6.5820     0.6000     0.8240 n7         1 DVM      -0.864400
     25 N61          5.1860    -2.2100    -3.3710 n8         1 DVM      -0.987200
     26 O11          2.6940    -0.1970     1.0360 os         1 DVM      -0.405000
     27 O23         -4.1160     2.0850    -0.0820 oh         1 DVM      -0.736000
     28 O43         -6.3510    -1.5990    -1.0930 oh         1 DVM      -0.709000
     29 O51          4.1530    -1.1780    -0.5160 os         1 DVM      -0.419100
     30 O53         -3.4820    -1.4030    -1.3610 os         1 DVM      -0.452000
     31 O62         -2.1510    -0.0620     0.0280 os         1 DVM      -0.491000
     32 H1          -2.7740     0.4540    -1.8940 h2         1 DVM       0.071700
     33 H3           5.6130    -0.9420     1.6310 hn         1 DVM       0.396000
     34 H5           0.8580     2.3140    -1.6880 hc         1 DVM       0.057700
     35 H6           0.6610     3.6430    -0.5510 hc         1 DVM       0.057700
     36 H7          -5.0860     0.8360    -1.4460 h1         1 DVM       0.068700
     37 H8           1.8500     0.0860    -0.8450 h1         1 DVM       0.056700
     38 H9           5.0320     3.7350    -1.3350 hc         1 DVM       0.058033
     39 H10          5.4080     4.8390     0.0540 hc         1 DVM       0.058033
     40 H11          5.6480     3.0410     0.0970 hc         1 DVM       0.058033
     41 H12          2.4460    -2.1150     0.2280 h2         1 DVM       0.054700
     42 H13         -1.0290     2.3540     0.7470 h1         1 DVM       0.086700
     43 H14          3.2680    -2.4520     2.5430 h1         1 DVM       0.081700
     44 H15          5.2600    -3.9780     1.8960 hc         1 DVM       0.056200
     45 H16          3.7670    -4.2300     1.0020 hc         1 DVM       0.056200
     46 H17          1.5190     2.2290     1.3220 h1         1 DVM       0.085700
     47 H18         -4.6590    -0.0750     1.4440 h1         1 DVM       0.062700
     48 H19          6.0520    -3.9630    -0.4490 ha         1 DVM       0.191000
     49 H22          0.0200     0.2330     1.6110 h1         1 DVM       0.060700
     50 H23         -3.4420    -2.1810     0.5790 h1         1 DVM       0.048700
     51 H24         -4.2190    -3.2030    -0.6430 h1         1 DVM       0.048700
     52 H25          5.9750    -0.6550    -2.1810 h1         1 DVM       0.044200
     53 H26          6.8680    -2.1870    -2.0960 h1         1 DVM       0.044200
     54 H27         -0.6240     0.1510    -1.3720 h1         1 DVM       0.048700
     55 H28         -7.1900    -2.1280     1.3530 hc         1 DVM       0.045033
     56 H29         -6.1880    -3.4900     0.8600 hc         1 DVM       0.045033
     57 H30         -5.6040    -2.3790     2.1050 hc         1 DVM       0.045033
     58 H34         -1.6310     3.7320    -1.1070 hn         1 DVM       0.408000
     59 H35         -1.4780     2.5410    -2.1610 hn         1 DVM       0.408000
     60 H37          3.6550     1.7900    -0.6160 hn         1 DVM       0.327500
     61 H38         -7.2970     0.0740     0.3040 hn         1 DVM       0.427000
     62 H40          4.2650    -1.7580    -3.4190 hn         1 DVM       0.396000
     63 H41          5.6870    -1.8340    -4.1840 hn         1 DVM       0.396000
     64 H43         -3.2090     2.2930    -0.4720 ho         1 DVM       0.543000
     65 H44         -5.7590    -1.6750    -1.8770 ho         1 DVM       0.500000
     66 C93         -6.9920     0.7180     2.2370 c3         1 DVM       0.162100
     67 O52          0.1040    -1.5720     0.5890 oh         1 DVM      -0.719000
     68 C            3.5900     3.6300     0.2510 c          1 DVM       0.604100
     69 H2           5.7860    -2.0540     2.7810 hn         1 DVM       0.396000
     70 H31         -7.9620     1.2270     2.3140 h1         1 DVM       0.024700
     71 H32         -7.0870    -0.2670     2.7110 h1         1 DVM       0.024700
     72 H33         -6.2560     1.3010     2.8060 h1         1 DVM       0.024700
     73 H45         -0.8660    -1.7330     0.4980 ho         1 DVM       0.521000
@<TRIPOS>BOND
     1     1     4 1   
     2     1    30 1   
     3     1    31 1   
     4     1    32 1   
     5     2    10 1   
     6     2    33 1   
     7     2    69 1   
     8     3     9 1   
     9     3    12 1   
    10     3    34 1   
    11     3    35 1   
    12     4    13 1   
    13     4    27 1   
    14     4    36 1   
    15     5    12 1   
    16     5    17 1   
    17     5    26 1   
    18     5    37 1   
    19     6    68 2   
    20     7    38 1   
    21     7    39 1   
    22     7    40 1   
    23     7    68 1   
    24     8    10 1   
    25     8    26 1   
    26     8    29 1   
    27     8    41 1   
    28     9    20 1   
    29     9    22 1   
    30     9    42 1   
    31    10    11 1   
    32    10    43 1   
    33    11    14 1   
    34    11    44 1   
    35    11    45 1   
    36    12    23 1   
    37    12    46 1   
    38    13    15 1   
    39    13    24 1   
    40    13    47 1   
    41    14    16 2   
    42    14    48 1   
    43    15    18 1   
    44    15    21 1   
    45    15    28 1   
    46    16    19 1   
    47    16    29 1   
    48    17    20 1   
    49    17    49 1   
    50    17    67 1   
    51    18    30 1   
    52    18    50 1   
    53    18    51 1   
    54    19    25 1   
    55    19    52 1   
    56    19    53 1   
    57    20    31 1   
    58    20    54 1   
    59    21    55 1   
    60    21    56 1   
    61    21    57 1   
    62    22    58 1   
    63    22    59 1   
    64    23    60 1   
    65    23    68 1   
    66    24    61 1   
    67    24    66 1   
    68    25    62 1   
    69    25    63 1   
    70    27    64 1   
    71    28    65 1   
    72    66    70 1   
    73    66    71 1   
    74    66    72 1   
    75    67    73 1   
@<TRIPOS>SUBSTRUCTURE
     1 DVM         1 TEMP              0 ****  ****    0 ROOT
