@<TRIPOS>MOLECULE
DVO
   34    36     1     0     0
SMALL
bcc


@<TRIPOS>ATOM
      1 C4          13.6240   -12.0820    35.1350 ca         1 DVO      -0.033000
      2 C14         11.5550   -18.3260    38.1550 c6         1 DVO      -0.159400
      3 C5          13.2920   -10.7670    35.4700 ca         1 DVO      -0.122600
      4 C6          13.5340    -9.6350    34.4660 c          1 DVO       0.925200
      5 C11         13.6640   -16.5190    39.0680 c          1 DVO       0.724500
      6 C7          12.7310   -10.4950    36.7190 ca         1 DVO      -0.100000
      7 C8          12.4820   -11.4980    37.6520 ca         1 DVO      -0.086000
      8 C9          13.6160   -14.5260    35.9780 c          1 DVO       0.748100
      9 C10         13.1660   -16.4530    37.6210 c6         1 DVO       0.073400
     10 C12         14.1500   -17.3400    36.8430 c3         1 DVO      -0.093100
     11 C13         11.7320   -16.9730    37.4890 c6         1 DVO      -0.089400
     12 N1          13.2160   -15.0530    37.2090 n          1 DVO      -0.536400
     13 N2          13.0500   -17.4430    39.8810 ns         1 DVO      -0.610500
     14 C3          13.3820   -13.0670    36.0660 ca         1 DVO      -0.180600
     15 C1          12.6750   -14.0580    38.0260 c          1 DVO       0.739100
     16 C15         12.0540   -18.3500    39.5690 c          1 DVO       0.727500
     17 C2          12.8210   -12.7860    37.2970 ca         1 DVO      -0.175600
     18 O1          12.1750   -14.2530    39.1050 o          1 DVO      -0.600500
     19 O2          14.0190    -9.9750    33.3720 o          1 DVO      -0.809300
     20 O3          13.2220    -8.4930    34.8420 o          1 DVO      -0.809300
     21 O5          11.6610   -19.1260    40.4090 o          1 DVO      -0.612500
     22 O6          14.0450   -15.1330    35.0330 o          1 DVO      -0.585500
     23 H1          14.0580   -12.3090    34.1710 ha         1 DVO       0.171000
     24 H2          10.5050   -18.6160    38.1610 hc         1 DVO       0.074200
     25 H3          12.0850   -19.1120    37.6090 hc         1 DVO       0.074200
     26 H4          12.4810    -9.4710    36.9630 ha         1 DVO       0.158000
     27 H5          12.0400   -11.2700    38.6130 ha         1 DVO       0.133000
     28 H6          14.2240   -18.3130    37.3290 hc         1 DVO       0.055033
     29 H7          13.8160   -17.5070    35.8230 hc         1 DVO       0.055033
     30 H8          15.1500   -16.9100    36.8270 hc         1 DVO       0.055033
     31 H9          11.0340   -16.2640    37.9360 hc         1 DVO       0.070700
     32 H10         11.4820   -17.0440    36.4300 hc         1 DVO       0.070700
     33 H11         13.4220   -17.5060    40.8220 hn         1 DVO       0.323500
     34 O4          14.6010   -15.8710    39.4630 o          1 DVO      -0.573500
@<TRIPOS>BOND
     1     1     3 ar  
     2     1    14 ar  
     3     1    23 1   
     4     2    11 1   
     5     2    16 1   
     6     2    24 1   
     7     2    25 1   
     8     3     4 1   
     9     3     6 ar  
    10     4    19 1   
    11     4    20 1   
    12     5     9 1   
    13     5    13 1   
    14     5    34 2   
    15     6     7 ar  
    16     6    26 1   
    17     7    17 ar  
    18     7    27 1   
    19     8    12 1   
    20     8    14 1   
    21     8    22 2   
    22     9    10 1   
    23     9    11 1   
    24     9    12 1   
    25    10    28 1   
    26    10    29 1   
    27    10    30 1   
    28    11    31 1   
    29    11    32 1   
    30    12    15 1   
    31    13    16 1   
    32    13    33 1   
    33    14    17 ar  
    34    15    17 1   
    35    15    18 2   
    36    16    21 2   
@<TRIPOS>SUBSTRUCTURE
     1 DVO         1 TEMP              0 ****  ****    0 ROOT
