@<TRIPOS>MOLECULE
DVO
   34    36     1     0     0
SMALL
No Charge or Current Charge


@<TRIPOS>ATOM
      1 C4          13.6140   -12.0340    35.1050 ca         1 DVO      -0.015000
      2 C14         11.5350   -18.4010    38.2020 c6         1 DVO      -0.159400
      3 C5          13.2950   -10.6900    35.4340 ca         1 DVO      -0.122600
      4 C6          13.5580    -9.5770    34.4360 c          1 DVO       0.714600
      5 C11         13.7060   -16.6420    39.1200 c          1 DVO       0.582000
      6 C7          12.7260   -10.4030    36.7100 ca         1 DVO      -0.082000
      7 C8          12.4760   -11.4290    37.6460 ca         1 DVO      -0.068000
      8 C9          13.5860   -14.5040    35.9730 c          1 DVO       0.605600
      9 C10         13.1890   -16.4750    37.6440 c6         1 DVO       0.073400
     10 C12         14.1700   -17.3550    36.7960 c3         1 DVO      -0.093100
     11 C13         11.7490   -17.0560    37.4640 c6         1 DVO      -0.089400
     12 N1          13.1520   -15.0270    37.2100 n          1 DVO      -0.402400
     13 N2          13.0360   -17.5050    39.9460 ns         1 DVO      -0.476500
     14 C3          13.3560   -13.0340    36.0540 ca         1 DVO      -0.180600
     15 C1          12.6570   -14.0120    38.0470 c          1 DVO       0.596600
     16 C15         12.0410   -18.3880    39.6470 c          1 DVO       0.585000
     17 C2          12.8050   -12.7420    37.2870 ca         1 DVO      -0.175600
     18 O1          12.1750   -14.1450    39.1630 o          1 DVO      -0.525000
     19 O2          14.0480    -9.8680    33.3530 o          1 DVO      -0.704000
     20 O3          13.2720    -8.4300    34.7490 o          1 DVO      -0.704000
     21 O5          11.5500   -19.0920    40.5130 o          1 DVO      -0.537000
     22 O6          14.0390   -15.1020    35.0090 o          1 DVO      -0.510000
     23 H1          14.0480   -12.2930    34.1410 ha         1 DVO       0.153000
     24 H2          10.4920   -18.7430    38.1780 hc         1 DVO       0.074200
     25 H3          12.1220   -19.1690    37.6840 hc         1 DVO       0.074200
     26 H4          12.4750    -9.3790    36.9790 ha         1 DVO       0.140000
     27 H5          12.0410   -11.2060    38.6180 ha         1 DVO       0.115000
     28 H6          14.2960   -18.3550    37.2290 hc         1 DVO       0.055033
     29 H7          13.8140   -17.5040    35.7690 hc         1 DVO       0.055033
     30 H8          15.1690   -16.9050    36.7480 hc         1 DVO       0.055033
     31 H9          11.0180   -16.3400    37.8630 hc         1 DVO       0.070700
     32 H10         11.5040   -17.1620    36.3980 hc         1 DVO       0.070700
     33 H11         13.3670   -17.5350    40.8990 hn         1 DVO       0.323500
     34 O4          14.6850   -16.0410    39.5380 o          1 DVO      -0.498000
@<TRIPOS>BOND
     1     1     3 ar  
     2     1    14 ar  
     3     1    23 1   
     4     2    11 1   
     5     2    16 1   
     6     2    24 1   
     7     2    25 1   
     8     3     4 1   
     9     3     6 ar  
    10     4    19 1   
    11     4    20 1   
    12     5     9 1   
    13     5    13 1   
    14     5    34 2   
    15     6     7 ar  
    16     6    26 1   
    17     7    17 ar  
    18     7    27 1   
    19     8    12 1   
    20     8    14 1   
    21     8    22 2   
    22     9    10 1   
    23     9    11 1   
    24     9    12 1   
    25    10    28 1   
    26    10    29 1   
    27    10    30 1   
    28    11    31 1   
    29    11    32 1   
    30    12    15 1   
    31    13    16 1   
    32    13    33 1   
    33    14    17 ar  
    34    15    17 1   
    35    15    18 2   
    36    16    21 2   
@<TRIPOS>SUBSTRUCTURE
     1 DVO         1 TEMP              0 ****  ****    0 ROOT
