@<TRIPOS>MOLECULE
DVP
   56    59     1     0     0
SMALL
No Charge or Current Charge


@<TRIPOS>ATOM
      1 CAY         -7.3320   -17.2700    39.5320 c3         1 DVP       0.150900
      2 OAX         -7.6420   -15.9510    39.0470 os         1 DVP      -0.446100
      3 CAW         -7.5420   -14.8980    39.9220 c          1 DVP       0.591100
      4 OBF         -7.2050   -15.0170    41.0930 o          1 DVP      -0.486000
      5 CAV         -7.8950   -13.5280    39.3040 c6         1 DVP      -0.119700
      6 CAU         -9.3540   -13.5110    38.7610 c6         1 DVP      -0.093400
      7 CAT         -9.6960   -12.1450    38.1230 c6         1 DVP       0.097000
      8 CAI         -6.9620   -13.1900    38.1040 c6         1 DVP      -0.093400
      9 CAH         -7.3270   -11.8330    37.4550 c6         1 DVP       0.097000
     10 NAG         -8.7540   -11.7970    37.0260 n          1 DVP      -0.410800
     11 CAF         -9.1330   -11.9190    35.6680 c          1 DVP       0.620700
     12 OAA        -10.1790   -12.4750    35.3560 o          1 DVP      -0.606100
     13 CAE         -8.2800   -11.2560    34.6100 ca         1 DVP      -0.192600
     14 CAS         -7.5710   -10.0610    34.8680 ca         1 DVP      -0.028500
     15 CAR         -6.8050    -9.4560    33.8570 ca         1 DVP      -0.191000
     16 CAD         -8.2400   -11.8010    33.3090 ca         1 DVP      -0.028500
     17 CAC         -7.4720   -11.1900    32.3030 ca         1 DVP      -0.191000
     18 CAQ         -6.7450   -10.0200    32.5760 ca         1 DVP       0.328000
     19 N10         -5.9710    -9.3960    31.5970 nu         1 DVP      -0.964200
     20 C9          -5.4400   -10.0140    30.3510 c3         1 DVP       0.179500
     21 C6          -4.5780   -11.2620    30.6010 ca         1 DVP       0.210300
     22 C7          -3.5090   -11.2360    31.5160 ca         1 DVP       0.094900
     23 N8          -2.7430   -12.3190    31.7510 nb         1 DVP      -0.107000
     24 C8A         -3.0200   -13.4610    31.0810 ca         1 DVP       0.113000
     25 N1          -2.2820   -14.5770    31.2770 nb         1 DVP      -0.271000
     26 C2          -2.6030   -15.6730    30.5780 ca         1 DVP       0.441900
     27 N2          -1.8430   -16.7660    30.7980 nv         1 DVP      -1.061900
     28 N3          -3.5830   -15.8210    29.6910 nb         1 DVP      -0.346000
     29 C4          -4.3300   -14.7340    29.4840 ca         1 DVP       0.460900
     30 N4          -5.3270   -14.9130    28.5680 nv         1 DVP      -1.059900
     31 C4A         -4.1060   -13.4930    30.1470 ca         1 DVP       0.035000
     32 N5          -4.8770   -12.3900    29.9090 nb         1 DVP      -0.608000
     33 HAY1        -8.0000   -17.5510    40.3570 h1         1 DVP       0.049700
     34 HAY2        -6.2950   -17.3230    39.8890 h1         1 DVP       0.049700
     35 HAY3        -7.4540   -18.0100    38.7310 h1         1 DVP       0.049700
     36 HAV         -7.7800   -12.7700    40.0910 hc         1 DVP       0.075700
     37 HAU1       -10.0590   -13.7200    39.5770 hc         1 DVP       0.062450
     38 HAU2        -9.4980   -14.3040    38.0140 hc         1 DVP       0.062450
     39 HAT1        -9.6440   -11.3620    38.8930 h1         1 DVP       0.060200
     40 HAT2       -10.7320   -12.1580    37.7550 h1         1 DVP       0.060200
     41 HAI1        -7.0200   -13.9790    37.3410 hc         1 DVP       0.062450
     42 HAI2        -5.9160   -13.1640    38.4410 hc         1 DVP       0.062450
     43 HAH1        -6.6520   -11.6730    36.6050 h1         1 DVP       0.060200
     44 HAH2        -7.1480   -11.0200    38.1740 h1         1 DVP       0.060200
     45 HAS         -7.6210    -9.5880    35.8470 ha         1 DVP       0.122500
     46 HAR         -6.2610    -8.5420    34.0740 ha         1 DVP       0.118000
     47 HAD         -8.7980   -12.7070    33.0780 ha         1 DVP       0.122500
     48 HAC         -7.4510   -11.6320    31.3120 ha         1 DVP       0.118000
     49 H10         -5.5510    -8.5080    31.8810 hn         1 DVP       0.478000
     50 H91         -4.8310    -9.2820    29.8020 h1         1 DVP       0.070700
     51 H92         -6.2750   -10.2860    29.6890 h1         1 DVP       0.070700
     52 H7          -3.2590   -10.3330    32.0710 h4         1 DVP       0.029100
     53 HN21        -1.2520   -16.7780    31.6250 hn         1 DVP       0.505500
     54 HN22        -2.1940   -17.6660    30.4780 hn         1 DVP       0.505500
     55 HN41        -5.7740   -14.0660    28.2270 hn         1 DVP       0.513500
     56 HN42        -5.2390   -15.6800    27.9080 hn         1 DVP       0.513500
@<TRIPOS>BOND
     1     1     2 1   
     2     1    33 1   
     3     1    34 1   
     4     1    35 1   
     5     2     3 1   
     6     3     4 2   
     7     3     5 1   
     8     5     6 1   
     9     5     8 1   
    10     5    36 1   
    11     6     7 1   
    12     6    37 1   
    13     6    38 1   
    14     7    10 1   
    15     7    39 1   
    16     7    40 1   
    17     8     9 1   
    18     8    41 1   
    19     8    42 1   
    20     9    10 1   
    21     9    43 1   
    22     9    44 1   
    23    10    11 1   
    24    11    12 2   
    25    11    13 1   
    26    13    14 ar  
    27    13    16 ar  
    28    14    15 ar  
    29    14    45 1   
    30    15    18 ar  
    31    15    46 1   
    32    16    17 ar  
    33    16    47 1   
    34    17    18 ar  
    35    17    48 1   
    36    18    19 1   
    37    19    20 1   
    38    19    49 1   
    39    20    21 1   
    40    20    50 1   
    41    20    51 1   
    42    21    22 ar  
    43    21    32 ar  
    44    22    23 ar  
    45    22    52 1   
    46    23    24 ar  
    47    24    25 ar  
    48    24    31 ar  
    49    25    26 ar  
    50    26    27 1   
    51    26    28 ar  
    52    27    53 1   
    53    27    54 1   
    54    28    29 ar  
    55    29    30 1   
    56    29    31 ar  
    57    30    55 1   
    58    30    56 1   
    59    31    32 ar  
@<TRIPOS>SUBSTRUCTURE
     1 DVP         1 TEMP              0 ****  ****    0 ROOT
