@<TRIPOS>MOLECULE
DVP
   56    59     1     0     0
SMALL
abcg2


@<TRIPOS>ATOM
      1 CAY         -7.0560   -17.1240    39.1640 c3         1 DVP       0.150900
      2 OAX         -7.3460   -15.7750    38.7470 os         1 DVP      -0.446100
      3 CAW         -7.4640   -14.8540    39.7110 c          1 DVP       0.591100
      4 OBF         -7.3240   -15.1070    40.8890 o          1 DVP      -0.486000
      5 CAV         -7.8190   -13.4910    39.1670 c6         1 DVP      -0.119700
      6 CAU         -9.2970   -13.4480    38.7370 c6         1 DVP      -0.093400
      7 CAT         -9.6440   -12.0590    38.2080 c6         1 DVP       0.097000
      8 CAI         -6.9220   -13.0460    38.0060 c6         1 DVP      -0.093400
      9 CAH         -7.3400   -11.6710    37.4860 c6         1 DVP       0.097000
     10 NAG         -8.7560   -11.6680    37.1160 n          1 DVP      -0.410800
     11 CAF         -9.2290   -11.6380    35.8420 c          1 DVP       0.620700
     12 OAA        -10.3760   -12.0140    35.5620 o          1 DVP      -0.606100
     13 CAE         -8.3460   -11.0950    34.7700 ca         1 DVP      -0.192600
     14 CAS         -7.6430    -9.8930    34.9120 ca         1 DVP      -0.028500
     15 CAR         -6.8900    -9.3810    33.8730 ca         1 DVP      -0.191000
     16 CAD         -8.2800   -11.7550    33.5440 ca         1 DVP      -0.028500
     17 CAC         -7.5080   -11.2670    32.5010 ca         1 DVP      -0.191000
     18 CAQ         -6.7950   -10.0660    32.6480 ca         1 DVP       0.328000
     19 N10         -6.0280    -9.5420    31.6320 nu         1 DVP      -0.964200
     20 C9          -5.6310   -10.3130    30.4760 c3         1 DVP       0.179500
     21 C6          -4.8140   -11.5530    30.7800 ca         1 DVP       0.210300
     22 C7          -4.0780   -11.7010    31.9750 ca         1 DVP       0.094900
     23 N8          -3.3600   -12.7700    32.2580 nb         1 DVP      -0.107000
     24 C8A         -3.3380   -13.7650    31.3360 ca         1 DVP       0.113000
     25 N1          -2.6220   -14.8760    31.6030 nb         1 DVP      -0.271000
     26 C2          -2.6370   -15.8160    30.6590 ca         1 DVP       0.441900
     27 N2          -1.9160   -16.9360    30.8810 nv         1 DVP      -1.061900
     28 N3          -3.2880   -15.7750    29.4650 nb         1 DVP      -0.346000
     29 C4          -3.9960   -14.6950    29.1890 ca         1 DVP       0.460900
     30 N4          -4.6550   -14.6010    28.0320 nv         1 DVP      -1.059900
     31 C4A         -4.0660   -13.6030    30.1360 ca         1 DVP       0.035000
     32 N5          -4.7960   -12.5140    29.8730 nb         1 DVP      -0.608000
     33 HAY1        -7.8510   -17.4970    39.8090 h1         1 DVP       0.049700
     34 HAY2        -6.1050   -17.1580    39.6950 h1         1 DVP       0.049700
     35 HAY3        -7.0020   -17.7060    38.2490 h1         1 DVP       0.049700
     36 HAV         -7.6880   -12.7980    40.0020 hc         1 DVP       0.075700
     37 HAU1        -9.9450   -13.6860    39.5830 hc         1 DVP       0.062450
     38 HAU2        -9.4760   -14.1910    37.9560 hc         1 DVP       0.062450
     39 HAT1        -9.5320   -11.3220    39.0090 h1         1 DVP       0.060200
     40 HAT2       -10.6670   -12.0270    37.8480 h1         1 DVP       0.060200
     41 HAI1        -6.9870   -13.7710    37.1920 hc         1 DVP       0.062450
     42 HAI2        -5.8790   -13.0010    38.3280 hc         1 DVP       0.062450
     43 HAH1        -6.7360   -11.4090    36.6250 h1         1 DVP       0.060200
     44 HAH2        -7.1800   -10.9110    38.2560 h1         1 DVP       0.060200
     45 HAS         -7.6960    -9.3460    35.8450 ha         1 DVP       0.122500
     46 HAR         -6.3590    -8.4450    33.9980 ha         1 DVP       0.118000
     47 HAD         -8.8330   -12.6750    33.4090 ha         1 DVP       0.122500
     48 HAC         -7.4620   -11.8220    31.5760 ha         1 DVP       0.118000
     49 H10         -5.4120    -8.7870    31.8900 hn         1 DVP       0.478000
     50 H91         -5.0480    -9.6530    29.8310 h1         1 DVP       0.070700
     51 H92         -6.5050   -10.6200    29.8970 h1         1 DVP       0.070700
     52 H7          -4.0920   -10.9090    32.7150 h4         1 DVP       0.029100
     53 HN21        -1.5130   -17.0890    31.7900 hn         1 DVP       0.505500
     54 HN22        -2.0110   -17.7150    30.2520 hn         1 DVP       0.505500
     55 HN41        -5.1920   -13.7740    27.8290 hn         1 DVP       0.513500
     56 HN42        -4.6190   -15.3520    27.3620 hn         1 DVP       0.513500
@<TRIPOS>BOND
     1     1     2 1   
     2     1    33 1   
     3     1    34 1   
     4     1    35 1   
     5     2     3 1   
     6     3     4 2   
     7     3     5 1   
     8     5     6 1   
     9     5     8 1   
    10     5    36 1   
    11     6     7 1   
    12     6    37 1   
    13     6    38 1   
    14     7    10 1   
    15     7    39 1   
    16     7    40 1   
    17     8     9 1   
    18     8    41 1   
    19     8    42 1   
    20     9    10 1   
    21     9    43 1   
    22     9    44 1   
    23    10    11 1   
    24    11    12 2   
    25    11    13 1   
    26    13    14 ar  
    27    13    16 ar  
    28    14    15 ar  
    29    14    45 1   
    30    15    18 ar  
    31    15    46 1   
    32    16    17 ar  
    33    16    47 1   
    34    17    18 ar  
    35    17    48 1   
    36    18    19 1   
    37    19    20 1   
    38    19    49 1   
    39    20    21 1   
    40    20    50 1   
    41    20    51 1   
    42    21    22 ar  
    43    21    32 ar  
    44    22    23 ar  
    45    22    52 1   
    46    23    24 ar  
    47    24    25 ar  
    48    24    31 ar  
    49    25    26 ar  
    50    26    27 1   
    51    26    28 ar  
    52    27    53 1   
    53    27    54 1   
    54    28    29 ar  
    55    29    30 1   
    56    29    31 ar  
    57    30    55 1   
    58    30    56 1   
    59    31    32 ar  
@<TRIPOS>SUBSTRUCTURE
     1 DVP         1 TEMP              0 ****  ****    0 ROOT
