@<TRIPOS>MOLECULE
DVQ
   30    30     1     0     0
SMALL
No Charge or Current Charge


@<TRIPOS>ATOM
      1 C05          0.2670     1.2910    -0.3360 c6         1 DVQ       0.146800
      2 C06          0.8150    -0.9870     0.4180 c6         1 DVQ       0.146800
      3 C07         -0.9400     0.7170    -1.1490 c6         1 DVQ       0.146800
      4 C08         -0.4040    -1.5340    -0.3990 c6         1 DVQ       0.146800
      5 C11          3.7910    -0.0650     0.6960 c3         1 DVQ       0.165600
      6 C12         -3.5320     0.5910     0.6430 c3         1 DVQ       0.165600
      7 N03          1.3610     0.2850    -0.1570 n3         1 DVQ      -0.701600
      8 N04         -1.5050    -0.5310    -0.5430 n3         1 DVQ      -0.701600
      9 O01          4.3560    -0.3350    -0.5990 oh         1 DVQ      -0.640500
     10 O02         -4.5260     0.0400    -0.2400 oh         1 DVQ      -0.640500
     11 H052         0.6510     2.1760    -0.8630 h1         1 DVQ       0.045325
     12 H051        -0.0950     1.6390     0.6430 h1         1 DVQ       0.045325
     13 H062         0.5040    -0.8320     1.4620 h1         1 DVQ       0.045325
     14 H061         1.5890    -1.7680     0.4300 h1         1 DVQ       0.045325
     15 H072        -1.7100     1.4940    -1.2520 h1         1 DVQ       0.045325
     16 H071        -0.5880     0.5000    -2.1690 h1         1 DVQ       0.045325
     17 H082        -0.0430    -1.8280    -1.3960 h1         1 DVQ       0.045325
     18 H081        -0.7770    -2.4510     0.0800 h1         1 DVQ       0.045325
     19 H092         2.2070     1.0780     1.6240 h1         1 DVQ       0.034950
     20 H091         2.8330     1.7880     0.1420 h1         1 DVQ       0.034950
     21 H102        -1.6040     0.1200     1.4910 h1         1 DVQ       0.034950
     22 H101        -2.5880    -1.2870     1.1250 h1         1 DVQ       0.034950
     23 H112         4.5330     0.4490     1.3210 h1         1 DVQ       0.013700
     24 H111         3.5360    -1.0030     1.2040 h1         1 DVQ       0.013700
     25 H121        -3.9520     0.6920     1.6520 h1         1 DVQ       0.013700
     26 H122        -3.2450     1.5970     0.3120 h1         1 DVQ       0.013700
     27 H011         5.1150    -0.9420    -0.4570 ho         1 DVQ       0.434500
     28 H021        -5.2630     0.6870    -0.2780 ho         1 DVQ       0.434500
     29 C09          2.5230     0.8390     0.5990 c3         1 DVQ       0.169800
     30 C10         -2.2650    -0.3140     0.7290 c3         1 DVQ       0.169800
@<TRIPOS>BOND
     1     1     3 1   
     2     1     7 1   
     3     1    11 1   
     4     1    12 1   
     5     2     4 1   
     6     2     7 1   
     7     2    13 1   
     8     2    14 1   
     9     3     8 1   
    10     3    15 1   
    11     3    16 1   
    12     4     8 1   
    13     4    17 1   
    14     4    18 1   
    15     5     9 1   
    16     5    23 1   
    17     5    24 1   
    18     5    29 1   
    19     6    10 1   
    20     6    25 1   
    21     6    26 1   
    22     6    30 1   
    23     7    29 1   
    24     8    30 1   
    25     9    27 1   
    26    10    28 1   
    27    19    29 1   
    28    20    29 1   
    29    21    30 1   
    30    22    30 1   
@<TRIPOS>SUBSTRUCTURE
     1 DVQ         1 TEMP              0 ****  ****    0 ROOT
