@<TRIPOS>MOLECULE
DVQ
   30    30     1     0     0
SMALL
bcc


@<TRIPOS>ATOM
      1 C05          0.3570     1.3330    -0.2170 c6         1 DVQ       0.146800
      2 C06          0.8170    -0.9080     0.4630 c6         1 DVQ       0.146800
      3 C07         -0.8620     0.8470    -0.9930 c6         1 DVQ       0.146800
      4 C08         -0.4090    -1.3710    -0.3170 c6         1 DVQ       0.146800
      5 C11          3.7090    -0.1730     0.6130 c3         1 DVQ       0.142400
      6 C12         -3.5770     0.4810     0.4990 c3         1 DVQ       0.142400
      7 N03          1.3690     0.2940    -0.1350 n3         1 DVQ      -0.701600
      8 N04         -1.4470    -0.3660    -0.4480 n3         1 DVQ      -0.701600
      9 O01          4.0870    -0.5430    -0.6940 oh         1 DVQ      -0.578300
     10 O02         -4.3490    -0.3380    -0.3490 oh         1 DVQ      -0.578300
     11 H052         0.7780     2.2030    -0.7270 h1         1 DVQ       0.045325
     12 H051         0.0500     1.6770     0.7870 h1         1 DVQ       0.045325
     13 H062         0.5600    -0.7530     1.5270 h1         1 DVQ       0.045325
     14 H061         1.5570    -1.7100     0.4340 h1         1 DVQ       0.045325
     15 H072        -1.6090     1.6420    -1.0340 h1         1 DVQ       0.045325
     16 H071        -0.5620     0.6500    -2.0280 h1         1 DVQ       0.045325
     17 H082        -0.0840    -1.6590    -1.3230 h1         1 DVQ       0.045325
     18 H081        -0.8250    -2.2650     0.1520 h1         1 DVQ       0.045325
     19 H092         2.3140     1.0770     1.5990 h1         1 DVQ       0.034950
     20 H091         2.8650     1.7070     0.0520 h1         1 DVQ       0.034950
     21 H102        -1.7260     0.4350     1.5260 h1         1 DVQ       0.034950
     22 H101        -2.4040    -1.1480     1.2100 h1         1 DVQ       0.034950
     23 H112         4.5220     0.3390     1.1440 h1         1 DVQ       0.013700
     24 H111         3.4510    -1.0490     1.2210 h1         1 DVQ       0.013700
     25 H121        -4.0610     0.6280     1.4740 h1         1 DVQ       0.013700
     26 H122        -3.4410     1.4840     0.0730 h1         1 DVQ       0.013700
     27 H011         4.8580    -1.1140    -0.6270 ho         1 DVQ       0.395500
     28 H021        -5.2050     0.0830    -0.4650 ho         1 DVQ       0.395500
     29 C09          2.5420     0.7910     0.5570 c3         1 DVQ       0.169800
     30 C10         -2.2330    -0.1670     0.7580 c3         1 DVQ       0.169800
@<TRIPOS>BOND
     1     1     3 1   
     2     1     7 1   
     3     1    11 1   
     4     1    12 1   
     5     2     4 1   
     6     2     7 1   
     7     2    13 1   
     8     2    14 1   
     9     3     8 1   
    10     3    15 1   
    11     3    16 1   
    12     4     8 1   
    13     4    17 1   
    14     4    18 1   
    15     5     9 1   
    16     5    23 1   
    17     5    24 1   
    18     5    29 1   
    19     6    10 1   
    20     6    25 1   
    21     6    26 1   
    22     6    30 1   
    23     7    29 1   
    24     8    30 1   
    25     9    27 1   
    26    10    28 1   
    27    19    29 1   
    28    20    29 1   
    29    21    30 1   
    30    22    30 1   
@<TRIPOS>SUBSTRUCTURE
     1 DVQ         1 TEMP              0 ****  ****    0 ROOT
