@<TRIPOS>MOLECULE
DVR
   40    41     1     0     0
SMALL
bcc


@<TRIPOS>ATOM
      1 S1          -0.4470    -2.4690     2.4210 s6         1 DVR       0.911000
      2 C2          -1.3010    -2.1740     0.8690 c3         1 DVR      -0.047400
      3 C3          -2.3430    -1.1110     1.0330 ce         1 DVR      -0.292200
      4 C4          -3.6180    -1.4270     1.4160 cf         1 DVR       0.180800
      5 N5          -4.0220    -2.6930     1.7050 nu         1 DVR      -0.614800
      6 C6          -5.2780    -2.9660     2.2310 cc         1 DVR       0.116900
      7 C7          -5.7800    -2.7670     3.5080 cd         1 DVR      -0.192200
      8 C8          -5.0130    -2.1830     4.5960 c          1 DVR       0.623100
      9 C9          -7.1170    -3.2110     3.5310 cd         1 DVR      -0.143000
     10 C10         -2.0080     0.2510     0.7200 ce         1 DVR       0.062000
     11 C11         -0.8050     0.7420     0.3680 cf         1 DVR      -0.349200
     12 C12         -0.6410     2.1680     0.0500 c          1 DVR       0.687300
     13 N12          0.6200     2.5340    -0.2540 nt         1 DVR      -0.691000
     14 O12         -1.5680     2.9770     0.0530 o          1 DVR      -0.628100
     15 O8          -5.4680    -1.9490     5.6950 o          1 DVR      -0.553100
     16 C4A         -4.7420    -0.3910     1.5190 c          1 DVR       0.919800
     17 O4A         -4.7010     0.3510     2.5100 o          1 DVR      -0.773300
     18 O4B         -5.5720    -0.4430     0.6010 o          1 DVR      -0.773300
     19 O1A          0.3220    -1.2870     2.7950 o          1 DVR      -0.595800
     20 O1B         -1.4000    -3.0160     3.3860 o          1 DVR      -0.595800
     21 CG          -7.4060    -3.6820     2.2650 cc         1 DVR      -0.075300
     22 CD1         -8.5520    -4.2530     1.6610 cc         1 DVR      -0.095000
     23 ND2         -6.2650    -3.5180     1.4780 na         1 DVR       0.067700
     24 CE1         -8.5220    -4.5990     0.3470 cd         1 DVR      -0.144000
     25 CE2         -6.2400    -3.8450     0.1480 cc         1 DVR      -0.044300
     26 CZ          -7.3400    -4.3830    -0.4220 cd         1 DVR      -0.179000
     27 HS1          0.4210    -3.4540     2.0730 hs         1 DVR       0.032800
     28 HC21        -0.5330    -1.9030     0.1410 h1         1 DVR       0.074700
     29 HC22        -1.6970    -3.1430     0.5510 h1         1 DVR       0.074700
     30 HN5         -3.3330    -3.4260     1.7880 hn         1 DVR       0.421800
     31 HC8         -3.9560    -1.9710     4.3640 h4         1 DVR       0.022200
     32 HC9         -7.7950    -3.2040     4.3690 ha         1 DVR       0.159000
     33 H10         -2.8160     0.9720     0.7680 ha         1 DVR       0.173000
     34 H11          0.0790     0.1160     0.3270 ha         1 DVR       0.104000
     35 H121         1.3860     1.8850    -0.2140 hn         1 DVR       0.296500
     36 H122         0.8380     3.4960    -0.4520 hn         1 DVR       0.296500
     37 HD1         -9.4360    -4.3980     2.2660 ha         1 DVR       0.135000
     38 HE1         -9.3920    -5.0350    -0.1240 ha         1 DVR       0.123000
     39 HE2         -5.3170    -3.6510    -0.3780 h4         1 DVR       0.169000
     40 HCZ         -7.3130    -4.6410    -1.4700 ha         1 DVR       0.134000
@<TRIPOS>BOND
     1     1     2 1   
     2     1    19 2   
     3     1    20 2   
     4     1    27 1   
     5     2     3 1   
     6     2    28 1   
     7     2    29 1   
     8     3     4 2   
     9     3    10 1   
    10     4     5 1   
    11     4    16 1   
    12     5     6 1   
    13     5    30 1   
    14     6     7 2   
    15     6    23 1   
    16     7     8 1   
    17     7     9 1   
    18     8    15 2   
    19     8    31 1   
    20     9    21 2   
    21     9    32 1   
    22    10    11 2   
    23    10    33 1   
    24    11    12 1   
    25    11    34 1   
    26    12    13 1   
    27    12    14 2   
    28    13    35 1   
    29    13    36 1   
    30    16    17 1   
    31    16    18 1   
    32    21    22 1   
    33    21    23 1   
    34    22    24 2   
    35    22    37 1   
    36    23    25 1   
    37    24    26 1   
    38    24    38 1   
    39    25    26 2   
    40    25    39 1   
    41    26    40 1   
@<TRIPOS>SUBSTRUCTURE
     1 DVR         1 TEMP              0 ****  ****    0 ROOT
