@<TRIPOS>MOLECULE
DVR
   40    41     1     0     0
SMALL
No Charge or Current Charge


@<TRIPOS>ATOM
      1 S1          -1.3420    -2.7490     2.2960 s6         1 DVR       0.880200
      2 C2          -1.7510    -1.9370     0.7010 c3         1 DVR      -0.158200
      3 C3          -2.6070    -0.6430     0.7440 ce         1 DVR      -0.292200
      4 C4          -3.9920    -0.6810     0.8090 cf         1 DVR       0.180800
      5 N5          -4.6130    -1.9400     0.8030 nu         1 DVR      -0.670000
      6 C6          -5.4990    -2.5740     1.6670 cc         1 DVR       0.116900
      7 C7          -5.8120    -2.3350     2.9960 cd         1 DVR      -0.192200
      8 C8          -5.1770    -1.2870     3.8330 c          1 DVR       0.623100
      9 C9          -6.8110    -3.2760     3.4240 cd         1 DVR      -0.193000
     10 C10         -1.8280     0.6140     0.5990 ce         1 DVR       0.012000
     11 C11         -0.5170     0.8010     0.9320 cf         1 DVR      -0.399200
     12 C12          0.2030     2.0760     0.7340 c          1 DVR       0.620300
     13 N12          1.4860     2.0700     1.1350 nt         1 DVR      -0.624000
     14 O12         -0.2980     3.0720     0.2450 o          1 DVR      -0.628100
     15 O8          -5.4800    -1.0860     5.0070 o          1 DVR      -0.553100
     16 C4A         -4.9420     0.5530     0.9290 c          1 DVR       0.709200
     17 O4A         -4.4810     1.6690     1.1370 o          1 DVR      -0.668000
     18 O4B         -6.1550     0.3770     0.8600 o          1 DVR      -0.668000
     19 O1A         -0.5070    -1.8440     3.1020 o          1 DVR      -0.525000
     20 O1B         -2.5670    -3.3160     2.8810 o          1 DVR      -0.525000
     21 CG          -7.1000    -4.0940     2.3690 cc         1 DVR      -0.126000
     22 CD1         -8.0090    -5.1740     2.2620 cc         1 DVR      -0.077000
     23 ND2         -6.2950    -3.6760     1.3430 na         1 DVR       0.169100
     24 CE1         -8.0820    -5.7980     1.0390 cd         1 DVR      -0.126000
     25 CE2         -6.3630    -4.2430     0.0620 cc         1 DVR      -0.077000
     26 CZ          -7.2560    -5.3160    -0.0520 cd         1 DVR      -0.161000
     27 HS1         -0.5570    -3.7840     1.8560 hs         1 DVR       0.032800
     28 HC21        -0.7880    -1.7380     0.2180 h1         1 DVR       0.074700
     29 HC22        -2.2400    -2.7080     0.0950 h1         1 DVR       0.074700
     30 HN5         -4.2220    -2.5600     0.0970 hn         1 DVR       0.477000
     31 HC8         -4.3860    -0.6780     3.3490 h4         1 DVR       0.022200
     32 HC9         -7.2560    -3.3320     4.4170 ha         1 DVR       0.209000
     33 H10         -2.3420     1.4670     0.1510 ha         1 DVR       0.223000
     34 H11          0.0540    -0.0080     1.3760 ha         1 DVR       0.154000
     35 H121         1.8810     1.2340     1.5390 hn         1 DVR       0.296500
     36 H122         2.0400     2.9060     1.0300 hn         1 DVR       0.296500
     37 HD1         -8.6160    -5.4790     3.1090 ha         1 DVR       0.117000
     38 HE1         -8.7590    -6.6330     0.8900 ha         1 DVR       0.105000
     39 HE2         -5.7450    -3.8430    -0.7300 h4         1 DVR       0.151000
     40 HCZ         -7.3410    -5.8090    -1.0150 ha         1 DVR       0.116000
@<TRIPOS>BOND
     1     1     2 1   
     2     1    19 2   
     3     1    20 2   
     4     1    27 1   
     5     2     3 1   
     6     2    28 1   
     7     2    29 1   
     8     3     4 2   
     9     3    10 1   
    10     4     5 1   
    11     4    16 1   
    12     5     6 1   
    13     5    30 1   
    14     6     7 2   
    15     6    23 1   
    16     7     8 1   
    17     7     9 1   
    18     8    15 2   
    19     8    31 1   
    20     9    21 2   
    21     9    32 1   
    22    10    11 2   
    23    10    33 1   
    24    11    12 1   
    25    11    34 1   
    26    12    13 1   
    27    12    14 2   
    28    13    35 1   
    29    13    36 1   
    30    16    17 1   
    31    16    18 1   
    32    21    22 1   
    33    21    23 1   
    34    22    24 2   
    35    22    37 1   
    36    23    25 1   
    37    24    26 1   
    38    24    38 1   
    39    25    26 2   
    40    25    39 1   
    41    26    40 1   
@<TRIPOS>SUBSTRUCTURE
     1 DVR         1 TEMP              0 ****  ****    0 ROOT
