@<TRIPOS>MOLECULE
DVS
   61    64     1     0     0
SMALL
No Charge or Current Charge


@<TRIPOS>ATOM
      1 N1          27.1030     2.1030    -3.3580 nb         1 DVS      -0.301000
      2 C7          21.1280    -1.5140    -0.7720 c5         1 DVS       0.111300
      3 C8          21.1540    -2.4180    -2.0600 c5         1 DVS       0.181300
      4 N2          23.5790     0.0110    -3.1340 na         1 DVS      -0.286300
      5 C9          19.8270    -2.4650    -2.8630 c3         1 DVS       0.055600
      6 O1          21.8700    -2.0740     0.3190 oh         1 DVS      -0.711000
      7 C1          24.9560     1.3920    -4.1650 ca         1 DVS      -0.099600
      8 C5          22.9350    -0.8870    -2.1860 c5         1 DVS       0.321300
      9 C6          21.8570    -0.2350    -1.2650 c5         1 DVS       0.079300
     10 N3          23.8710     1.2970    -5.0290 nc         1 DVS      -0.559100
     11 C4          23.0600     0.4490    -4.3650 cd         1 DVS       0.412700
     12 C3          26.8460     1.3220    -2.2810 ca         1 DVS       0.180900
     13 C2          24.7960     0.6310    -3.0340 ca         1 DVS       0.138500
     14 N4          15.8780    -3.3950    -5.7430 nu         1 DVS      -0.991400
     15 O2          22.3910     0.5200    -0.1550 oh         1 DVS      -0.694000
     16 O           22.2090    -1.8960    -2.9120 os         1 DVS      -0.449000
     17 N           25.7350     0.5790    -2.0680 nb         1 DVS      -0.214000
     18 C           26.1480     2.1370    -4.2990 ca         1 DVS       0.445900
     19 N7          26.4040     2.9190    -5.3820 nv         1 DVS      -1.060900
     20 C10         17.6670    -1.3120    -4.3340 c3         1 DVS       0.070600
     21 C11         17.9270    -2.0050    -5.6890 c3         1 DVS      -0.098400
     22 C12         16.6360    -2.3560    -6.4520 c3         1 DVS       0.230800
     23 C13         14.6750    -3.7610    -6.1400 c2         1 DVS       0.836100
     24 N6          14.4830    -4.9650    -6.4060 n2         1 DVS      -0.904100
     25 N5          13.8410    -3.0530    -5.4030 nu         1 DVS      -0.911400
     26 C14         12.5570    -3.5390    -4.8880 c3         1 DVS       0.270100
     27 C15         11.9270    -2.4800    -3.9930 ca         1 DVS      -0.105300
     28 C20         12.2250    -2.4440    -2.6160 ca         1 DVS      -0.105000
     29 C19         11.6440    -1.4660    -1.7900 ca         1 DVS      -0.107500
     30 C18         10.7620    -0.5170    -2.3350 ca         1 DVS      -0.112000
     31 C17         10.4620    -0.5460    -3.7070 ca         1 DVS      -0.107500
     32 C16         11.0430    -1.5240    -4.5340 ca         1 DVS      -0.105000
     33 H1          20.0990    -1.2890    -0.4600 h1         1 DVS       0.065700
     34 H2          21.4110    -3.4500    -1.7840 h1         1 DVS       0.091700
     35 H3          19.0420    -2.8770    -2.2160 h1         1 DVS       0.074700
     36 H4          19.9600    -3.1580    -3.7040 h1         1 DVS       0.074700
     37 H5          22.2880    -1.2760     0.7340 ho         1 DVS       0.526000
     38 H6          23.7260    -1.3550    -1.5850 h2         1 DVS       0.117700
     39 H7          21.1770     0.3900    -1.8610 h1         1 DVS       0.069700
     40 H8          22.0880     0.1130    -4.7090 h5         1 DVS       0.082800
     41 H9          27.6130     1.2870    -1.5090 h5         1 DVS       0.046100
     42 H10         16.4220    -4.1770    -5.4010 hn         1 DVS       0.482000
     43 H11         22.7390     1.3720    -0.5140 ho         1 DVS       0.516000
     44 H12         27.3680     3.1850    -5.5610 hn         1 DVS       0.503000
     45 H13         25.8060     2.7920    -6.1950 hn         1 DVS       0.503000
     46 H14         17.0640    -0.4090    -4.4990 h1         1 DVS       0.071700
     47 H15         17.1050    -1.9780    -3.6650 h1         1 DVS       0.071700
     48 H16         18.5230    -2.9130    -5.5410 hc         1 DVS       0.057200
     49 H17         18.5250    -1.3320    -6.3150 hc         1 DVS       0.057200
     50 H18         16.8990    -2.7100    -7.4590 h1         1 DVS       0.049700
     51 H19         16.0260    -1.4490    -6.5680 h1         1 DVS       0.049700
     52 H20         15.3840    -5.3450    -6.7080 hn         1 DVS       0.377400
     53 H21         14.3800    -2.4630    -4.7890 hn         1 DVS       0.472000
     54 H22         11.8760    -3.7750    -5.7190 h1         1 DVS       0.070700
     55 H23         12.7010    -4.4620    -4.3080 h1         1 DVS       0.070700
     56 H24         12.9080    -3.1730    -2.1860 ha         1 DVS       0.108500
     57 H25         11.8770    -1.4430    -0.7280 ha         1 DVS       0.110500
     58 H26         10.3130     0.2400    -1.6950 ha         1 DVS       0.112000
     59 H27          9.7810     0.1890    -4.1310 ha         1 DVS       0.110500
     60 H28         10.8080    -1.5380    -5.5970 ha         1 DVS       0.108500
     61 S           19.2580    -0.8200    -3.5230 ss         1 DVS      -0.464000
@<TRIPOS>BOND
     1     1    12 ar  
     2     1    18 ar  
     3     2     3 1   
     4     2     6 1   
     5     2     9 1   
     6     2    33 1   
     7     3     5 1   
     8     3    16 1   
     9     3    34 1   
    10     4     8 1   
    11     4    11 1   
    12     4    13 1   
    13     5    35 1   
    14     5    36 1   
    15     5    61 1   
    16     6    37 1   
    17     7    10 1   
    18     7    13 ar  
    19     7    18 ar  
    20     8     9 1   
    21     8    16 1   
    22     8    38 1   
    23     9    15 1   
    24     9    39 1   
    25    10    11 2   
    26    11    40 1   
    27    12    17 ar  
    28    12    41 1   
    29    13    17 ar  
    30    14    22 1   
    31    14    23 1   
    32    14    42 1   
    33    15    43 1   
    34    18    19 1   
    35    19    44 1   
    36    19    45 1   
    37    20    21 1   
    38    20    46 1   
    39    20    47 1   
    40    20    61 1   
    41    21    22 1   
    42    21    48 1   
    43    21    49 1   
    44    22    50 1   
    45    22    51 1   
    46    23    24 2   
    47    23    25 1   
    48    24    52 1   
    49    25    26 1   
    50    25    53 1   
    51    26    27 1   
    52    26    54 1   
    53    26    55 1   
    54    27    28 ar  
    55    27    32 ar  
    56    28    29 ar  
    57    28    56 1   
    58    29    30 ar  
    59    29    57 1   
    60    30    31 ar  
    61    30    58 1   
    62    31    32 ar  
    63    31    59 1   
    64    32    60 1   
@<TRIPOS>SUBSTRUCTURE
     1 DVS         1 TEMP              0 ****  ****    0 ROOT
