@<TRIPOS>MOLECULE
DVS
   61    64     1     0     0
SMALL
abcg2


@<TRIPOS>ATOM
      1 N1          26.4800     1.7730    -3.5090 nb         1 DVS      -0.301000
      2 C7          20.3060    -1.0910    -0.7120 c5         1 DVS       0.111300
      3 C8          20.5450    -2.2090    -1.7340 c5         1 DVS       0.181300
      4 N2          22.9160     0.0410    -3.0190 na         1 DVS      -0.286300
      5 C9          19.4040    -2.4870    -2.6960 c3         1 DVS       0.055600
      6 O1          20.8520    -1.4970     0.5170 oh         1 DVS      -0.711000
      7 C1          24.3240     1.1820    -4.2400 ca         1 DVS      -0.099600
      8 C5          22.2770    -0.6760    -1.9480 c5         1 DVS       0.321300
      9 C6          21.1100     0.0710    -1.3060 c5         1 DVS       0.079300
     10 N3          23.1910     1.0330    -4.9980 nc         1 DVS      -0.559100
     11 C4          22.3810     0.3540    -4.2420 cd         1 DVS       0.412700
     12 C3          26.1980     1.1410    -2.3730 ca         1 DVS       0.180900
     13 C2          24.1750     0.5690    -3.0060 ca         1 DVS       0.138500
     14 N4          16.2730    -4.0760    -6.1280 nu         1 DVS      -0.991400
     15 O2          21.5890     0.9910    -0.3710 oh         1 DVS      -0.694000
     16 O           21.7260    -1.8550    -2.4570 os         1 DVS      -0.449000
     17 N           25.0830     0.5180    -2.0340 nb         1 DVS      -0.214000
     18 C           25.5570     1.8170    -4.4760 ca         1 DVS       0.445900
     19 N7          25.8280     2.4700    -5.6080 nv         1 DVS      -1.060900
     20 C10         17.6920    -1.7280    -4.7740 c3         1 DVS       0.070600
     21 C11         18.2650    -2.5980    -5.8810 c3         1 DVS      -0.098400
     22 C12         17.1900    -3.1800    -6.7990 c3         1 DVS       0.230800
     23 C13         14.9510    -3.8740    -5.8410 c2         1 DVS       0.836100
     24 N6          14.1310    -4.7950    -5.4760 n2         1 DVS      -0.904100
     25 N5          14.5080    -2.5830    -5.9800 nu         1 DVS      -0.911400
     26 C14         13.1720    -2.1990    -5.6200 c3         1 DVS       0.270100
     27 C15         12.9670    -1.7970    -4.1750 ca         1 DVS      -0.105300
     28 C20         13.8630    -2.1350    -3.1670 ca         1 DVS      -0.105000
     29 C19         13.6330    -1.7470    -1.8520 ca         1 DVS      -0.107500
     30 C18         12.4990    -1.0160    -1.5260 ca         1 DVS      -0.112000
     31 C17         11.5960    -0.6750    -2.5250 ca         1 DVS      -0.107500
     32 C16         11.8330    -1.0600    -3.8370 ca         1 DVS      -0.105000
     33 H1          19.2390    -0.8480    -0.6210 h1         1 DVS       0.065700
     34 H2          20.7270    -3.1440    -1.1930 h1         1 DVS       0.091700
     35 H3          18.5420    -2.8310    -2.1230 h1         1 DVS       0.074700
     36 H4          19.6970    -3.2930    -3.3710 h1         1 DVS       0.074700
     37 H5          21.0100    -0.7060     1.0460 ho         1 DVS       0.526000
     38 H6          23.0550    -0.8680    -1.2000 h2         1 DVS       0.117700
     39 H7          20.5150     0.5610    -2.0870 h1         1 DVS       0.069700
     40 H8          21.3840     0.0390    -4.5140 h5         1 DVS       0.082800
     41 H9          26.9900     1.1390    -1.6310 h5         1 DVS       0.046100
     42 H10         16.5950    -5.0230    -6.0150 hn         1 DVS       0.482000
     43 H11         20.9350     1.6860    -0.2480 ho         1 DVS       0.516000
     44 H12         26.7570     2.8170    -5.7740 hn         1 DVS       0.503000
     45 H13         25.1980     2.4230    -6.3900 hn         1 DVS       0.503000
     46 H14         17.1760    -0.8620    -5.1960 h1         1 DVS       0.071700
     47 H15         16.9670    -2.2760    -4.1700 h1         1 DVS       0.071700
     48 H16         18.8470    -3.4200    -5.4560 hc         1 DVS       0.057200
     49 H17         18.9540    -2.0070    -6.4880 hc         1 DVS       0.057200
     50 H18         17.6840    -3.7320    -7.6020 h1         1 DVS       0.049700
     51 H19         16.6360    -2.3800    -7.2920 h1         1 DVS       0.049700
     52 H20         14.5710    -5.7060    -5.5190 hn         1 DVS       0.377400
     53 H21         15.1870    -1.8420    -5.9310 hn         1 DVS       0.472000
     54 H22         12.8740    -1.3650    -6.2590 h1         1 DVS       0.070700
     55 H23         12.5050    -3.0270    -5.8640 h1         1 DVS       0.070700
     56 H24         14.7540    -2.7040    -3.4000 ha         1 DVS       0.108500
     57 H25         14.3440    -2.0170    -1.0820 ha         1 DVS       0.110500
     58 H26         12.3220    -0.7120    -0.5020 ha         1 DVS       0.112000
     59 H27         10.7110    -0.1000    -2.2850 ha         1 DVS       0.110500
     60 H28         11.1280    -0.7800    -4.6120 ha         1 DVS       0.108500
     61 S           18.9390    -1.0210    -3.6640 ss         1 DVS      -0.464000
@<TRIPOS>BOND
     1     1    12 ar  
     2     1    18 ar  
     3     2     3 1   
     4     2     6 1   
     5     2     9 1   
     6     2    33 1   
     7     3     5 1   
     8     3    16 1   
     9     3    34 1   
    10     4     8 1   
    11     4    11 1   
    12     4    13 1   
    13     5    35 1   
    14     5    36 1   
    15     5    61 1   
    16     6    37 1   
    17     7    10 1   
    18     7    13 ar  
    19     7    18 ar  
    20     8     9 1   
    21     8    16 1   
    22     8    38 1   
    23     9    15 1   
    24     9    39 1   
    25    10    11 2   
    26    11    40 1   
    27    12    17 ar  
    28    12    41 1   
    29    13    17 ar  
    30    14    22 1   
    31    14    23 1   
    32    14    42 1   
    33    15    43 1   
    34    18    19 1   
    35    19    44 1   
    36    19    45 1   
    37    20    21 1   
    38    20    46 1   
    39    20    47 1   
    40    20    61 1   
    41    21    22 1   
    42    21    48 1   
    43    21    49 1   
    44    22    50 1   
    45    22    51 1   
    46    23    24 2   
    47    23    25 1   
    48    24    52 1   
    49    25    26 1   
    50    25    53 1   
    51    26    27 1   
    52    26    54 1   
    53    26    55 1   
    54    27    28 ar  
    55    27    32 ar  
    56    28    29 ar  
    57    28    56 1   
    58    29    30 ar  
    59    29    57 1   
    60    30    31 ar  
    61    30    58 1   
    62    31    32 ar  
    63    31    59 1   
    64    32    60 1   
@<TRIPOS>SUBSTRUCTURE
     1 DVS         1 TEMP              0 ****  ****    0 ROOT
