@<TRIPOS>MOLECULE
DVU
   73    78     1     0     0
SMALL
No Charge or Current Charge


@<TRIPOS>ATOM
      1 C13        -22.7160    -2.4440    28.3950 ca         1 DVU      -0.086000
      2 C15        -20.6240    -3.3960    27.5800 ca         1 DVU      -0.103300
      3 C17        -20.7360    -1.0590    28.2710 ca         1 DVU      -0.086000
      4 C20        -29.1540     0.6000    30.3290 c6         1 DVU       0.167000
      5 C21        -28.7540     0.8540    31.8080 c6         1 DVU      -0.101400
      6 C22        -29.1120     2.2860    32.2720 c6         1 DVU       0.165300
      7 C24        -30.9690     2.3950    30.6570 c6         1 DVU       0.165300
      8 C28        -30.7540     4.0420    34.1140 ca         1 DVU      -0.068300
      9 C01        -24.2300     0.2000    29.1270 cc         1 DVU       0.061400
     10 C02        -24.4760     1.3750    29.8340 cc         1 DVU       0.144500
     11 C03        -25.8700     1.8640    29.9400 c          1 DVU       0.500500
     12 C05        -26.4270    -0.1050    28.5900 cd         1 DVU       0.502800
     13 C07        -22.8770    -0.0260    29.1340 cd         1 DVU      -0.090000
     14 C12        -22.1060    -1.1850    28.6010 ca         1 DVU      -0.016000
     15 C14        -21.9850    -3.5360    27.8950 ca         1 DVU      -0.101500
     16 C16        -20.0050    -2.1490    27.7670 ca         1 DVU      -0.101500
     17 C18        -19.8310    -4.5750    27.0340 c3         1 DVU       0.139300
     18 C25        -30.6540     0.9630    30.1600 c6         1 DVU      -0.101400
     19 C29        -29.6980     4.8040    34.6630 ca         1 DVU       0.125000
     20 C30        -29.5450     4.9020    36.0580 ca         1 DVU      -0.094000
     21 C31        -30.4370     4.2460    36.9340 ca         1 DVU      -0.106500
     22 C32        -31.4860     3.4850    36.3790 ca         1 DVU      -0.094000
     23 C33        -31.6410     3.3840    34.9860 ca         1 DVU      -0.085000
     24 C34        -30.2930     4.3360    38.3930 cc         1 DVU       0.179500
     25 C36        -29.3680     5.0790    39.0760 cd         1 DVU      -0.164000
     26 C37        -29.6230     4.8500    40.4450 cd         1 DVU      -0.187000
     27 C38        -30.6850     3.9870    40.5290 cc         1 DVU       0.128900
     28 N04        -26.8140     1.0420    29.2860 n          1 DVU      -0.342300
     29 N06        -25.1720    -0.5570    28.4760 nc         1 DVU      -0.581100
     30 N08        -22.3910     1.0440    29.9310 na         1 DVU       0.167800
     31 N09        -23.3890     1.9220    30.3440 nd         1 DVU      -0.449800
     32 N23        -30.5610     2.5750    32.0750 n3         1 DVU      -0.724600
     33 N40        -19.8530    -4.6030    25.5700 ns         1 DVU      -0.514900
     34 O10        -26.1890     2.8870    30.5380 o          1 DVU      -0.519000
     35 O26        -29.0010    -0.7980    30.0490 oh         1 DVU      -0.668000
     36 O39        -31.1160     3.6580    39.2620 os         1 DVU      -0.237000
     37 O42        -17.8300    -3.6030    25.1940 o          1 DVU      -0.603100
     38 Cl1        -28.5310     5.6450    33.6400 cl         1 DVU      -0.202000
     39 H1         -23.7570    -2.6060    28.6540 ha         1 DVU       0.123000
     40 H2         -20.2280    -0.1050    28.3560 ha         1 DVU       0.123000
     41 H3         -29.2710     0.1390    32.4620 hc         1 DVU       0.055200
     42 H4         -27.6800     0.6750    31.9540 hc         1 DVU       0.055200
     43 H5         -28.8420     2.3760    33.3340 h1         1 DVU       0.043200
     44 H6         -28.5020     3.0200    31.7270 h1         1 DVU       0.043200
     45 H7         -30.4630     3.1310    30.0140 h1         1 DVU       0.043200
     46 H8         -32.0500     2.5700    30.5490 h1         1 DVU       0.043200
     47 H9         -27.2200    -0.6560    28.0990 h5         1 DVU       0.056800
     48 H10        -21.0460     1.8750    31.3310 h1         1 DVU       0.065700
     49 H11        -20.5680     0.2860    30.6830 h1         1 DVU       0.065700
     50 H12        -20.4240     1.7570    29.6620 h1         1 DVU       0.065700
     51 H13        -22.4820    -4.4940    27.7570 ha         1 DVU       0.120000
     52 H14        -18.9560    -2.0190    27.5120 ha         1 DVU       0.120000
     53 H15        -20.2610    -5.5140    27.4090 h1         1 DVU       0.064700
     54 H16        -18.7940    -4.5250    27.3920 h1         1 DVU       0.064700
     55 H17        -28.3640     2.4820    29.5190 h1         1 DVU       0.070200
     56 H18        -28.6650     1.2520    28.3120 h1         1 DVU       0.070200
     57 H19        -30.9550     0.8650    29.1080 hc         1 DVU       0.055200
     58 H20        -31.2770     0.2550    30.7230 hc         1 DVU       0.055200
     59 H21        -30.4380     4.7000    32.0680 h1         1 DVU       0.048200
     60 H22        -32.0330     4.0610    32.4100 h1         1 DVU       0.048200
     61 H23        -28.7210     5.4930    36.4450 ha         1 DVU       0.132000
     62 H24        -32.1890     2.9640    37.0260 ha         1 DVU       0.129000
     63 H25        -32.4550     2.7870    34.5790 ha         1 DVU       0.126000
     64 H26        -28.5950     5.7160    38.6600 ha         1 DVU       0.143000
     65 H27        -29.0830     5.2760    41.2850 ha         1 DVU       0.143000
     66 H28        -31.2050     3.5520    41.3720 h4         1 DVU       0.053100
     67 H29        -19.0880    -4.2190    23.6820 h5         1 DVU       0.008200
     68 H31        -20.6640    -4.9950    25.1060 hn         1 DVU       0.315500
     69 H32        -29.5740    -1.2780    30.6850 ho         1 DVU       0.451000
     70 C11        -21.0220     1.2510    30.4290 c3         1 DVU       0.061900
     71 C19        -28.2570     1.4090    29.3190 c3         1 DVU       0.104000
     72 C27        -30.9640     3.9010    32.6060 c3         1 DVU       0.214100
     73 C41        -18.8570    -4.1080    24.7580 c          1 DVU       0.599900
@<TRIPOS>BOND
     1     1    14 ar  
     2     1    15 ar  
     3     1    39 1   
     4     2    15 ar  
     5     2    16 ar  
     6     2    17 1   
     7     3    14 ar  
     8     3    16 ar  
     9     3    40 1   
    10     4     5 1   
    11     4    18 1   
    12     4    35 1   
    13     4    71 1   
    14     5     6 1   
    15     5    41 1   
    16     5    42 1   
    17     6    32 1   
    18     6    43 1   
    19     6    44 1   
    20     7    18 1   
    21     7    32 1   
    22     7    45 1   
    23     7    46 1   
    24     8    19 ar  
    25     8    23 ar  
    26     8    72 1   
    27     9    10 1   
    28     9    13 2   
    29     9    29 1   
    30    10    11 1   
    31    10    31 2   
    32    11    28 1   
    33    11    34 2   
    34    12    28 1   
    35    12    29 2   
    36    12    47 1   
    37    13    14 1   
    38    13    30 1   
    39    15    51 1   
    40    16    52 1   
    41    17    33 1   
    42    17    53 1   
    43    17    54 1   
    44    18    57 1   
    45    18    58 1   
    46    19    20 ar  
    47    19    38 1   
    48    20    21 ar  
    49    20    61 1   
    50    21    22 ar  
    51    21    24 1   
    52    22    23 ar  
    53    22    62 1   
    54    23    63 1   
    55    24    25 2   
    56    24    36 1   
    57    25    26 1   
    58    25    64 1   
    59    26    27 2   
    60    26    65 1   
    61    27    36 1   
    62    27    66 1   
    63    28    71 1   
    64    30    31 1   
    65    30    70 1   
    66    32    72 1   
    67    33    68 1   
    68    33    73 1   
    69    35    69 1   
    70    37    73 2   
    71    48    70 1   
    72    49    70 1   
    73    50    70 1   
    74    55    71 1   
    75    56    71 1   
    76    59    72 1   
    77    60    72 1   
    78    67    73 1   
@<TRIPOS>SUBSTRUCTURE
     1 DVU         1 TEMP              0 ****  ****    0 ROOT
