@<TRIPOS>MOLECULE
DVU
   73    78     1     0     0
SMALL
abcg2


@<TRIPOS>ATOM
      1 C13        -22.6710    -2.5240    28.7590 ca         1 DVU      -0.086000
      2 C15        -20.7770    -3.4530    27.5810 ca         1 DVU      -0.103300
      3 C17        -20.9930    -1.0640    27.8590 ca         1 DVU      -0.086000
      4 C20        -28.9690     0.7290    30.4750 c6         1 DVU       0.167000
      5 C21        -28.4850     1.1700    31.8580 c6         1 DVU      -0.101400
      6 C22        -28.9190     2.5820    32.2210 c6         1 DVU       0.165300
      7 C24        -30.8210     2.4550    30.7830 c6         1 DVU       0.165300
      8 C28        -30.6700     4.1120    34.1080 ca         1 DVU      -0.068300
      9 C01        -24.3370     0.1200    29.0000 cc         1 DVU       0.061400
     10 C02        -24.5310     1.3590    29.6190 cc         1 DVU       0.144500
     11 C03        -25.8540     1.9250    29.7510 c          1 DVU       0.500500
     12 C05        -26.5110    -0.1120    28.5890 cd         1 DVU       0.502800
     13 C07        -22.9670    -0.1000    29.0610 cd         1 DVU      -0.090000
     14 C12        -22.1880    -1.2310    28.5640 ca         1 DVU      -0.016000
     15 C14        -21.9720    -3.6180    28.2700 ca         1 DVU      -0.101500
     16 C16        -20.2970    -2.1600    27.3820 ca         1 DVU      -0.101500
     17 C18        -20.0140    -4.6480    27.0670 c3         1 DVU       0.139300
     18 C25        -30.4670     1.0350    30.3680 c6         1 DVU      -0.101400
     19 C29        -29.8230     4.9950    34.7700 ca         1 DVU       0.125000
     20 C30        -29.7310     5.0380    36.1520 ca         1 DVU      -0.094000
     21 C31        -30.4990     4.1790    36.9340 ca         1 DVU      -0.106500
     22 C32        -31.3520     3.2780    36.2900 ca         1 DVU      -0.094000
     23 C33        -31.4220     3.2550    34.9100 ca         1 DVU      -0.085000
     24 C34        -30.3960     4.2360    38.3820 cc         1 DVU       0.179500
     25 C36        -29.6430     4.9900    39.2310 cd         1 DVU      -0.164000
     26 C37        -29.9910     4.5810    40.5490 cd         1 DVU      -0.187000
     27 C38        -30.9270     3.6130    40.4050 cc         1 DVU       0.128900
     28 N04        -26.8210     1.0690    29.2280 n          1 DVU      -0.342300
     29 N06        -25.3430    -0.6200    28.4460 nc         1 DVU      -0.581100
     30 N08        -22.4710     0.9910    29.6990 na         1 DVU       0.167800
     31 N09        -23.3880     1.8800    30.0400 nd         1 DVU      -0.449800
     32 N23        -30.3620     2.7180    32.1340 n3         1 DVU      -0.724600
     33 N40        -19.7880    -4.6040    25.6410 ns         1 DVU      -0.514900
     34 O10        -26.1220     3.0020    30.2480 o          1 DVU      -0.519000
     35 O26        -28.7350    -0.6520    30.2830 oh         1 DVU      -0.668000
     36 O39        -31.1770     3.3990    39.1000 os         1 DVU      -0.237000
     37 O42        -17.5840    -4.0310    25.6520 o          1 DVU      -0.603100
     38 CL1        -28.8120     6.0900    33.8740 cl         1 DVU      -0.202000
     39 H1         -23.5930    -2.6790    29.3040 ha         1 DVU       0.123000
     40 H2         -20.6090    -0.0710    27.6620 ha         1 DVU       0.123000
     41 H3         -28.9140     0.4840    32.5960 hc         1 DVU       0.055200
     42 H4         -27.4000     1.0780    31.9450 hc         1 DVU       0.055200
     43 H5         -28.5980     2.7890    33.2440 h1         1 DVU       0.043200
     44 H6         -28.4090     3.3170    31.5780 h1         1 DVU       0.043200
     45 H7         -30.4090     3.1830    30.0630 h1         1 DVU       0.043200
     46 H8         -31.9060     2.5740    30.7490 h1         1 DVU       0.043200
     47 H9         -27.3610    -0.6240    28.1590 h5         1 DVU       0.056800
     48 H10        -21.0770     1.8880    30.9280 h1         1 DVU       0.065700
     49 H11        -20.5770     0.3240    30.2640 h1         1 DVU       0.065700
     50 H12        -20.5760     1.7660    29.2320 h1         1 DVU       0.065700
     51 H13        -22.3650    -4.6140    28.4330 ha         1 DVU       0.120000
     52 H14        -19.3700    -2.0020    26.8450 ha         1 DVU       0.120000
     53 H15        -20.5570    -5.5630    27.3090 h1         1 DVU       0.064700
     54 H16        -19.0460    -4.7160    27.5630 h1         1 DVU       0.064700
     55 H17        -28.3060     2.5080    29.4130 h1         1 DVU       0.070200
     56 H18        -28.7080     1.1530    28.3800 h1         1 DVU       0.070200
     57 H19        -30.8230     0.8480    29.3510 hc         1 DVU       0.055200
     58 H20        -31.0010     0.3430    31.0270 hc         1 DVU       0.055200
     59 H21        -30.3060     4.8420    32.1080 h1         1 DVU       0.048200
     60 H22        -31.8760     4.1060    32.3690 h1         1 DVU       0.048200
     61 H23        -29.0550     5.7450    36.6140 ha         1 DVU       0.132000
     62 H24        -31.9640     2.5910    36.8590 ha         1 DVU       0.129000
     63 H25        -32.0840     2.5470    34.4280 ha         1 DVU       0.126000
     64 H26        -28.9250     5.7460    38.9570 ha         1 DVU       0.143000
     65 H27        -29.5960     4.9590    41.4780 ha         1 DVU       0.143000
     66 H28        -31.4800     3.0130    41.1090 h4         1 DVU       0.053100
     67 H29        -18.6820    -4.3350    23.9670 h5         1 DVU       0.008200
     68 H31        -20.5740    -4.7790    25.0350 hn         1 DVU       0.315500
     69 H32        -29.1260    -1.1350    31.0200 ho         1 DVU       0.451000
     70 C11        -21.0900     1.2570    30.0450 c3         1 DVU       0.061900
     71 C19        -28.2330     1.4280    29.3240 c3         1 DVU       0.104000
     72 C27        -30.8140     4.0100    32.6130 c3         1 DVU       0.214100
     73 C41        -18.6160    -4.3040    25.0660 c          1 DVU       0.599900
@<TRIPOS>BOND
     1     1    14 ar  
     2     1    15 ar  
     3     1    39 1   
     4     2    15 ar  
     5     2    16 ar  
     6     2    17 1   
     7     3    14 ar  
     8     3    16 ar  
     9     3    40 1   
    10     4     5 1   
    11     4    18 1   
    12     4    35 1   
    13     4    71 1   
    14     5     6 1   
    15     5    41 1   
    16     5    42 1   
    17     6    32 1   
    18     6    43 1   
    19     6    44 1   
    20     7    18 1   
    21     7    32 1   
    22     7    45 1   
    23     7    46 1   
    24     8    19 ar  
    25     8    23 ar  
    26     8    72 1   
    27     9    10 1   
    28     9    13 2   
    29     9    29 1   
    30    10    11 1   
    31    10    31 2   
    32    11    28 1   
    33    11    34 2   
    34    12    28 1   
    35    12    29 2   
    36    12    47 1   
    37    13    14 1   
    38    13    30 1   
    39    15    51 1   
    40    16    52 1   
    41    17    33 1   
    42    17    53 1   
    43    17    54 1   
    44    18    57 1   
    45    18    58 1   
    46    19    20 ar  
    47    19    38 1   
    48    20    21 ar  
    49    20    61 1   
    50    21    22 ar  
    51    21    24 1   
    52    22    23 ar  
    53    22    62 1   
    54    23    63 1   
    55    24    25 2   
    56    24    36 1   
    57    25    26 1   
    58    25    64 1   
    59    26    27 2   
    60    26    65 1   
    61    27    36 1   
    62    27    66 1   
    63    28    71 1   
    64    30    31 1   
    65    30    70 1   
    66    32    72 1   
    67    33    68 1   
    68    33    73 1   
    69    35    69 1   
    70    37    73 2   
    71    48    70 1   
    72    49    70 1   
    73    50    70 1   
    74    55    71 1   
    75    56    71 1   
    76    59    72 1   
    77    60    72 1   
    78    67    73 1   
@<TRIPOS>SUBSTRUCTURE
     1 DVU         1 TEMP              0 ****  ****    0 ROOT
