@<TRIPOS>MOLECULE
DVV
  152   160     1     0     0
SMALL
No Charge or Current Charge


@<TRIPOS>ATOM
      1 O71         -3.5120    -2.6820     5.0110 o          1 DVV      -0.689500
      2 C70         -4.4060    -2.3520     4.2390 c          1 DVV       0.723000
      3 O80         -5.5420    -2.7990     4.3070 o          1 DVV      -0.689500
      4 C69         -4.0930    -1.2910     3.1370 c3         1 DVV      -0.013000
      5 N68         -5.1350    -0.2300     3.0830 ns         1 DVV      -0.441900
      6 C56         -6.1000    -0.0830     2.1030 c          1 DVV       0.598100
      7 O57         -6.1830    -0.8630     1.1610 o          1 DVV      -0.649100
      8 C55         -7.0090     1.1870     2.2130 c3         1 DVV      -0.011300
      9 N54         -6.4580     2.1640     3.2090 ns         1 DVV      -0.509900
     10 C45         -7.0470     2.4690     4.4290 c          1 DVV       0.599100
     11 O46         -8.1960     2.1390     4.6840 o          1 DVV      -0.572100
     12 C44         -6.1330     3.1820     5.4750 c3         1 DVV       0.084000
     13 N43         -5.5120     4.4280     4.9690 ns         1 DVV      -0.486900
     14 C34         -4.9820     5.4060     5.7960 c          1 DVV       0.603100
     15 O35         -4.9640     5.2710     7.0130 o          1 DVV      -0.590100
     16 C33         -4.4630     6.6920     5.0880 c3         1 DVV       0.072000
     17 N32         -3.6120     7.4940     6.0060 ns         1 DVV      -0.489900
     18 C26         -3.0240     8.7020     5.6780 c          1 DVV       0.591100
     19 O27         -3.0190     9.1100     4.5240 o          1 DVV      -0.595100
     20 C25         -2.4200     9.5430     6.8550 c3         1 DVV       0.054700
     21 N24         -2.4160    10.9730     6.4760 ns         1 DVV      -0.499900
     22 C12         -1.7050    11.9750     7.1050 c          1 DVV       0.600100
     23 O13         -0.8990    11.7270     7.9940 o          1 DVV      -0.588100
     24 C11         -1.9660    13.4080     6.5640 c3         1 DVV       0.034700
     25 N10         -0.8420    14.3040     6.9380 ns         1 DVV      -0.488900
     26 C4          -0.5650    15.5140     6.3370 c          1 DVV       0.558100
     27 O5          -1.2150    15.9170     5.3800 o          1 DVV      -0.614100
     28 C3           0.6180    16.3260     6.9710 c3         1 DVV       0.111500
     29 N2           0.1860    17.6560     7.5110 n7         1 DVV      -0.855400
     30 C1          -0.7580    17.6090     8.6450 c3         1 DVV       0.148100
     31 C6           1.7680    16.5060     5.9350 c3         1 DVV      -0.067400
     32 C7           3.2050    16.7250     6.4980 c3         1 DVV      -0.046700
     33 C8           3.7290    15.5100     7.3000 c3         1 DVV      -0.087600
     34 C9           3.3720    18.0410     7.2930 c3         1 DVV      -0.087600
     35 C14         -3.3390    13.9800     7.0390 c3         1 DVV       0.208600
     36 O15         -3.3250    14.2070     8.4560 oh         1 DVV      -0.646000
     37 C16         -4.5310    13.1070     6.6230 ca         1 DVV      -0.123300
     38 C18         -5.2130    12.2760     7.5430 ca         1 DVV      -0.087000
     39 C20         -6.2610    11.4430     7.1120 ca         1 DVV      -0.116000
     40 C21         -6.6300    11.4140     5.7580 ca         1 DVV       0.105100
     41 O22         -7.5920    10.5230     5.3400 os         1 DVV      -0.242200
     42 C40         -7.2270     9.3770     4.6680 ca         1 DVV       0.132100
     43 C38         -6.1930     8.5980     5.2230 ca         1 DVV      -0.185000
     44 C36         -5.6440     7.5040     4.5270 ca         1 DVV      -0.028300
     45 C37         -6.1830     7.1740     3.2770 ca         1 DVV      -0.191000
     46 C39         -7.2740     7.8910     2.7420 ca         1 DVV       0.169100
     47 O66         -7.8410     7.4790     1.5520 os         1 DVV      -0.204200
     48 C65         -7.8540     6.1420     1.2350 ca         1 DVV       0.076100
     49 C63         -6.8810     5.6400     0.3590 ca         1 DVV      -0.125000
     50 C61         -6.7340     4.2540     0.1930 ca         1 DVV      -0.083000
     51 C60         -7.5750     3.3540     0.8900 ca         1 DVV      -0.068300
     52 C62         -8.5990     3.8750     1.7100 ca         1 DVV      -0.086000
     53 C64         -8.7310     5.2600     1.8970 ca         1 DVV       0.112000
     54 Cl6         -9.9540     5.8630     3.0170 cl         1 DVV      -0.175000
     55 C58         -7.3730     1.8300     0.8250 c3         1 DVV       0.220600
     56 O59         -6.4120     1.4690    -0.1800 oh         1 DVV      -0.674000
     57 C41         -7.8090     9.0050     3.4230 ca         1 DVV       0.058100
     58 O42         -8.8620     9.6770     2.8080 os         1 DVV      -0.298100
     59 C15         -9.7920    10.4980     3.5370 c6         1 DVV       0.366300
     60 O9         -10.4130     9.7140     4.5800 os         1 DVV      -0.467000
     61 C5         -11.3080    10.4820     5.4260 c6         1 DVV       0.100300
     62 C22        -11.7890     9.5300     6.5590 c3         1 DVV       0.174600
     63 O6         -10.6970     8.7310     7.0320 oh         1 DVV      -0.715000
     64 C10        -12.4790    11.0650     4.5790 c6         1 DVV       0.145300
     65 O4         -13.3490    11.8910     5.3740 oh         1 DVV      -0.690000
     66 C13        -11.8990    11.8940     3.3950 c6         1 DVV       0.109300
     67 O3         -12.9520    12.3810     2.5480 oh         1 DVV      -0.635000
     68 C2         -10.8980    11.0340     2.5720 c6         1 DVV       0.106300
     69 O2         -10.3550    11.8080     1.4700 oh         1 DVV      -0.694000
     70 C19         -5.9700    12.2520     4.8350 ca         1 DVV       0.106000
     71 Cl2         -6.4130    12.2570     3.1280 cl         1 DVV      -0.148000
     72 C17         -4.9310    13.0940     5.2700 ca         1 DVV      -0.099000
     73 C28         -3.1220     9.3350     8.2310 c3         1 DVV      -0.193400
     74 C29         -2.4620     8.2010     9.0050 c          1 DVV       0.596100
     75 O30         -2.7110     7.0310     8.7870 o          1 DVV      -0.586100
     76 N31         -1.5630     8.5560     9.9430 nt         1 DVV      -0.603000
     77 C47         -5.0830     2.1730     5.9460 ca         1 DVV      -0.188300
     78 C49         -5.2290     1.5270     7.1880 ca         1 DVV      -0.044000
     79 C51         -4.3850     0.4570     7.5280 ca         1 DVV      -0.160000
     80 C52         -3.4270    -0.0050     6.6150 ca         1 DVV       0.227100
     81 O53         -2.7150    -1.1240     6.9210 oh         1 DVV      -0.604100
     82 C50         -3.2520     0.6430     5.3680 cp         1 DVV      -0.134000
     83 C48         -4.0500     1.7690     5.0790 ca         1 DVV      -0.080000
     84 C73         -2.2800     0.1670     4.3340 cp         1 DVV      -0.157000
     85 C75         -0.9410     0.6240     4.3780 ca         1 DVV       0.191100
     86 O79         -0.5390     1.4690     5.3660 oh         1 DVV      -0.544100
     87 C76         -0.0100     0.2310     3.4110 ca         1 DVV      -0.204000
     88 C77         -0.3980    -0.6240     2.3780 ca         1 DVV       0.167100
     89 O78          0.5110    -1.0030     1.4400 oh         1 DVV      -0.543100
     90 C74         -1.7160    -1.0910     2.3080 ca         1 DVV      -0.236000
     91 C72         -2.6720    -0.7110     3.2730 ca         1 DVV       0.058700
     92 H69         -4.1370    -1.8520     2.1960 h1         1 DVV       0.077700
     93 H68         -5.1570     0.4450     3.8370 hn         1 DVV       0.318500
     94 H55         -7.9500     0.8020     2.6250 h1         1 DVV       0.108700
     95 H54         -5.5270     2.5310     3.0480 hn         1 DVV       0.316500
     96 H44         -6.7880     3.4450     6.3170 h1         1 DVV       0.114700
     97 H43         -5.5350     4.6250     3.9760 hn         1 DVV       0.317500
     98 H33         -3.8330     6.3600     4.2530 h1         1 DVV       0.100700
     99 H32         -3.5430     7.1910     6.9760 hn         1 DVV       0.343500
    100 H25         -1.3730     9.2220     6.9430 h1         1 DVV       0.115700
    101 H24         -3.0290    11.2580     5.7190 hn         1 DVV       0.335500
    102 H11         -1.9870    13.3280     5.4700 h1         1 DVV       0.102700
    103 H10         -0.2770    14.0430     7.7400 hn         1 DVV       0.340500
    104 H3           1.0030    15.7100     7.7940 h1         1 DVV       0.064700
    105 HN2         -0.2590    18.1800     6.7440 hn         1 DVV       0.432000
    106 H11A        -0.9980    18.6250     8.9880 h1         1 DVV       0.030033
    107 H12         -0.3250    17.0580     9.4900 h1         1 DVV       0.030033
    108 H13         -1.6980    17.1180     8.3570 h1         1 DVV       0.030033
    109 H61A         1.5160    17.3280     5.2540 hc         1 DVV       0.053200
    110 H62A         1.8020    15.6070     5.3070 hc         1 DVV       0.053200
    111 H7           3.8580    16.8160     5.6210 hc         1 DVV       0.040700
    112 H81          4.7930    15.6360     7.5350 hc         1 DVV       0.033867
    113 H82          3.6200    14.5850     6.7220 hc         1 DVV       0.033867
    114 H83          3.1880    15.3920     8.2470 hc         1 DVV       0.033867
    115 H91          2.8330    17.9990     8.2470 hc         1 DVV       0.033867
    116 H92          4.4300    18.2250     7.5130 hc         1 DVV       0.033867
    117 H93          2.9930    18.8940     6.7170 hc         1 DVV       0.033867
    118 H14         -3.4690    14.9490     6.5360 h1         1 DVV       0.052700
    119 H15         -4.1630    14.6680     8.6750 ho         1 DVV       0.449000
    120 H18         -4.9240    12.2480     8.5910 ha         1 DVV       0.131000
    121 H20         -6.7660    10.7930     7.8230 ha         1 DVV       0.132000
    122 H38         -5.7950     8.8730     6.1940 ha         1 DVV       0.123000
    123 H37         -5.7520     6.3490     2.7190 ha         1 DVV       0.143000
    124 H63         -6.1970     6.3230    -0.1420 ha         1 DVV       0.131000
    125 H61         -5.9380     3.8890    -0.4520 ha         1 DVV       0.141000
    126 H62         -9.2620     3.2030     2.2490 ha         1 DVV       0.147000
    127 H58         -8.3420     1.3980     0.5330 h1         1 DVV       0.069700
    128 H59         -6.2550     0.4980    -0.0580 ho         1 DVV       0.477000
    129 H1          -9.2670    11.3590     3.9720 h2         1 DVV       0.029700
    130 H5         -10.7360    11.3040     5.8830 h1         1 DVV       0.038700
    131 H6'1       -12.5840     8.8860     6.1590 h1         1 DVV       0.057700
    132 H6'2       -12.2230    10.1290     7.3720 h1         1 DVV       0.057700
    133 H6         -10.1030     8.6720     6.2440 ho         1 DVV       0.522000
    134 H4         -13.0450    10.2190     4.1560 h1         1 DVV       0.106700
    135 H19        -13.8250    12.4590     4.7220 ho         1 DVV       0.497000
    136 H16        -11.3460    12.7490     3.8120 h1         1 DVV       0.014700
    137 H2         -12.5040    12.6400     1.7100 ho         1 DVV       0.453000
    138 H22        -11.4370    10.1540     2.1870 h1         1 DVV       0.117700
    139 H21         -9.6250    11.2720     1.0780 ho         1 DVV       0.498000
    140 H17         -4.4250    13.7270     4.5440 ha         1 DVV       0.140000
    141 H281        -4.1880     9.1270     8.0850 hc         1 DVV       0.075200
    142 H282        -3.0170    10.2530     8.8210 hc         1 DVV       0.075200
    143 H311        -1.3500     9.5310    10.0960 hn         1 DVV       0.317000
    144 H312        -1.0970     7.8380    10.4780 hn         1 DVV       0.317000
    145 H49         -6.0200     1.8250     7.8740 ha         1 DVV       0.113000
    146 H51         -4.5170    -0.0540     8.4780 ha         1 DVV       0.129000
    147 H53         -2.8800    -1.7630     6.1630 ho         1 DVV       0.561000
    148 H48         -3.9050     2.2750     4.1280 ha         1 DVV       0.096000
    149 H79         -1.3210     1.6200     5.9390 ho         1 DVV       0.475000
    150 H76          1.0130     0.5930     3.4620 ha         1 DVV       0.131000
    151 H78          0.0630    -1.5980     0.8020 ho         1 DVV       0.461000
    152 H74         -2.0050    -1.7600     1.5010 ha         1 DVV       0.115000
@<TRIPOS>BOND
     1     1     2 1   
     2     2     3 1   
     3     2     4 1   
     4     4     5 1   
     5     4    91 1   
     6     4    92 1   
     7     5     6 1   
     8     5    93 1   
     9     6     7 2   
    10     6     8 1   
    11     8     9 1   
    12     8    55 1   
    13     8    94 1   
    14     9    10 1   
    15     9    95 1   
    16    10    11 2   
    17    10    12 1   
    18    12    13 1   
    19    12    77 1   
    20    12    96 1   
    21    13    14 1   
    22    13    97 1   
    23    14    15 2   
    24    14    16 1   
    25    16    17 1   
    26    16    44 1   
    27    16    98 1   
    28    17    18 1   
    29    17    99 1   
    30    18    19 2   
    31    18    20 1   
    32    20    21 1   
    33    20    73 1   
    34    20   100 1   
    35    21    22 1   
    36    21   101 1   
    37    22    23 2   
    38    22    24 1   
    39    24    25 1   
    40    24    35 1   
    41    24   102 1   
    42    25    26 1   
    43    25   103 1   
    44    26    27 2   
    45    26    28 1   
    46    28    29 1   
    47    28    31 1   
    48    28   104 1   
    49    29    30 1   
    50    29   105 1   
    51    30   106 1   
    52    30   107 1   
    53    30   108 1   
    54    31    32 1   
    55    31   109 1   
    56    31   110 1   
    57    32    33 1   
    58    32    34 1   
    59    32   111 1   
    60    33   112 1   
    61    33   113 1   
    62    33   114 1   
    63    34   115 1   
    64    34   116 1   
    65    34   117 1   
    66    35    36 1   
    67    35    37 1   
    68    35   118 1   
    69    36   119 1   
    70    37    38 ar  
    71    37    72 ar  
    72    38    39 ar  
    73    38   120 1   
    74    39    40 ar  
    75    39   121 1   
    76    40    41 1   
    77    40    70 ar  
    78    41    42 1   
    79    42    43 ar  
    80    42    57 ar  
    81    43    44 ar  
    82    43   122 1   
    83    44    45 ar  
    84    45    46 ar  
    85    45   123 1   
    86    46    47 1   
    87    46    57 ar  
    88    47    48 1   
    89    48    49 ar  
    90    48    53 ar  
    91    49    50 ar  
    92    49   124 1   
    93    50    51 ar  
    94    50   125 1   
    95    51    52 ar  
    96    51    55 1   
    97    52    53 ar  
    98    52   126 1   
    99    53    54 1   
   100    55    56 1   
   101    55   127 1   
   102    56   128 1   
   103    57    58 1   
   104    58    59 1   
   105    59    60 1   
   106    59    68 1   
   107    59   129 1   
   108    60    61 1   
   109    61    62 1   
   110    61    64 1   
   111    61   130 1   
   112    62    63 1   
   113    62   131 1   
   114    62   132 1   
   115    63   133 1   
   116    64    65 1   
   117    64    66 1   
   118    64   134 1   
   119    65   135 1   
   120    66    67 1   
   121    66    68 1   
   122    66   136 1   
   123    67   137 1   
   124    68    69 1   
   125    68   138 1   
   126    69   139 1   
   127    70    71 1   
   128    70    72 ar  
   129    72   140 1   
   130    73    74 1   
   131    73   141 1   
   132    73   142 1   
   133    74    75 2   
   134    74    76 1   
   135    76   143 1   
   136    76   144 1   
   137    77    78 ar  
   138    77    83 ar  
   139    78    79 ar  
   140    78   145 1   
   141    79    80 ar  
   142    79   146 1   
   143    80    81 1   
   144    80    82 ar  
   145    81   147 1   
   146    82    83 ar  
   147    82    84 1   
   148    83   148 1   
   149    84    85 ar  
   150    84    91 ar  
   151    85    86 1   
   152    85    87 ar  
   153    86   149 1   
   154    87    88 ar  
   155    87   150 1   
   156    88    89 1   
   157    88    90 ar  
   158    89   151 1   
   159    90    91 ar  
   160    90   152 1   
@<TRIPOS>SUBSTRUCTURE
     1 DVV         1 TEMP              0 ****  ****    0 ROOT
