@<TRIPOS>MOLECULE
DVV
  152   160     1     0     0
SMALL
abcg2


@<TRIPOS>ATOM
      1 O71         -2.9370    -2.2400     4.6490 o          1 DVV      -0.689500
      2 C70         -3.9600    -1.7280     4.1210 c          1 DVV       0.723000
      3 O80         -5.1360    -1.9960     4.3600 o          1 DVV      -0.689500
      4 C69         -3.6920    -0.6860     2.9970 c3         1 DVV      -0.013000
      5 N68         -4.6990     0.3490     2.9910 ns         1 DVV      -0.441900
      6 C56         -5.6700     0.5180     2.0950 c          1 DVV       0.598100
      7 O57         -5.8560    -0.1950     1.1180 o          1 DVV      -0.649100
      8 C55         -6.5880     1.7310     2.3480 c3         1 DVV      -0.011300
      9 N54         -6.0400     2.6560     3.3150 ns         1 DVV      -0.509900
     10 C45         -6.5070     2.7850     4.5800 c          1 DVV       0.599100
     11 O46         -7.5130     2.2310     4.9740 o          1 DVV      -0.572100
     12 C44         -5.6130     3.5430     5.5850 c3         1 DVV       0.084000
     13 N43         -5.1730     4.8480     5.1410 ns         1 DVV      -0.486900
     14 C34         -5.3640     5.9460     5.9020 c          1 DVV       0.603100
     15 O35         -5.9170     5.9460     6.9850 o          1 DVV      -0.590100
     16 C33         -4.8820     7.2610     5.2920 c3         1 DVV       0.072000
     17 N32         -4.1940     7.9960     6.3220 ns         1 DVV      -0.489900
     18 C26         -3.2660     8.9250     6.0280 c          1 DVV       0.591100
     19 O27         -2.8730     9.1210     4.8920 o          1 DVV      -0.595100
     20 C25         -2.7180     9.7700     7.1860 c3         1 DVV       0.054700
     21 N24         -2.6080    11.1200     6.6730 ns         1 DVV      -0.499900
     22 C12         -1.9160    12.0960     7.2830 c          1 DVV       0.600100
     23 O13         -1.3120    11.9430     8.3300 o          1 DVV      -0.588100
     24 C11         -1.9580    13.4430     6.5560 c3         1 DVV       0.034700
     25 N10         -0.8120    14.2240     6.9200 ns         1 DVV      -0.488900
     26 C4           0.0510    14.7460     6.0290 c          1 DVV       0.558100
     27 O5          -0.0770    14.6260     4.8190 o          1 DVV      -0.614100
     28 C3           1.2460    15.4870     6.6410 c3         1 DVV       0.111500
     29 N2           1.5830    16.6860     5.9180 n7         1 DVV      -0.855400
     30 C1           0.5440    17.6950     5.9230 c3         1 DVV       0.148100
     31 C6           2.4120    14.4940     6.7100 c3         1 DVV      -0.067400
     32 C7           3.6970    14.9810     7.3980 c3         1 DVV      -0.046700
     33 C8           3.4200    15.6760     8.7260 c3         1 DVV      -0.087600
     34 C9           4.5790    15.8440     6.5000 c3         1 DVV      -0.087600
     35 C14         -3.2570    14.2260     6.8540 c3         1 DVV       0.208600
     36 O15         -3.2890    14.4570     8.2310 oh         1 DVV      -0.646000
     37 C16         -4.4840    13.4990     6.3450 ca         1 DVV      -0.123300
     38 C18         -5.4280    12.9620     7.2110 ca         1 DVV      -0.087000
     39 C20         -6.5110    12.2480     6.7190 ca         1 DVV      -0.116000
     40 C21         -6.6540    12.0530     5.3570 ca         1 DVV       0.105100
     41 O22         -7.6880    11.3070     4.8660 os         1 DVV      -0.242200
     42 C40         -7.4170    10.0070     4.5600 ca         1 DVV       0.132100
     43 C38         -6.3340     9.3280     5.1020 ca         1 DVV      -0.185000
     44 C36         -6.0930     8.0150     4.7460 ca         1 DVV      -0.028300
     45 C37         -6.9450     7.3740     3.8580 ca         1 DVV      -0.191000
     46 C39         -8.0400     8.0490     3.3340 ca         1 DVV       0.169100
     47 O66         -8.9030     7.4830     2.4460 os         1 DVV      -0.204200
     48 C65         -8.5300     6.2620     1.9580 ca         1 DVV       0.076100
     49 C63         -7.5130     6.1600     1.0270 ca         1 DVV      -0.125000
     50 C61         -7.0160     4.9170     0.6710 ca         1 DVV      -0.083000
     51 C60         -7.5430     3.7590     1.2320 ca         1 DVV      -0.068300
     52 C62         -8.6370     3.8620     2.0850 ca         1 DVV      -0.086000
     53 C64         -9.1160     5.1060     2.4560 ca         1 DVV       0.112000
     54 CL6        -10.4100     5.2220     3.5910 cl         1 DVV      -0.175000
     55 C58         -6.9020     2.4130     0.9920 c3         1 DVV       0.220600
     56 O59         -5.7330     2.6040     0.2430 oh         1 DVV      -0.674000
     57 C41         -8.2860     9.3790     3.6740 ca         1 DVV       0.058100
     58 O42         -9.3290    10.0400     3.1060 os         1 DVV      -0.298100
     59 C15        -10.4330    10.2540     3.9340 c6         1 DVV       0.366300
     60 O9         -10.9590     9.0110     4.2860 os         1 DVV      -0.467000
     61 C5         -12.0370     9.1070     5.1990 c6         1 DVV       0.100300
     62 C22        -12.3820     7.6900     5.6170 c3         1 DVV       0.174600
     63 O6         -11.3140     7.0540     6.2750 oh         1 DVV      -0.715000
     64 C10        -13.2070     9.8360     4.5330 c6         1 DVV       0.145300
     65 O4         -14.3120     9.9440     5.3930 oh         1 DVV      -0.690000
     66 C13        -12.7330    11.1960     4.0240 c6         1 DVV       0.109300
     67 O3         -13.7810    11.7940     3.3100 oh         1 DVV      -0.635000
     68 C2         -11.4760    11.0500     3.1590 c6         1 DVV       0.106300
     69 O2         -11.0000    12.2970     2.7240 oh         1 DVV      -0.694000
     70 C19         -5.7240    12.6090     4.4840 ca         1 DVV       0.106000
     71 CL2         -5.9120    12.3690     2.7880 cl         1 DVV      -0.148000
     72 C17         -4.6560    13.3410     4.9720 ca         1 DVV      -0.099000
     73 C28         -3.5340     9.7230     8.4790 c3         1 DVV      -0.193400
     74 C29         -3.3370     8.4270     9.2440 c          1 DVV       0.596100
     75 O30         -2.2450     7.8870     9.3160 o          1 DVV      -0.586100
     76 N31         -4.4450     7.9310     9.8150 nt         1 DVV      -0.603000
     77 C47         -4.5080     2.5790     5.9570 ca         1 DVV      -0.188300
     78 C49         -4.5850     1.8440     7.1360 ca         1 DVV      -0.044000
     79 C51         -3.7410     0.7700     7.3600 ca         1 DVV      -0.160000
     80 C52         -2.8370     0.3560     6.3800 ca         1 DVV       0.227100
     81 O53         -2.1130    -0.7530     6.5770 oh         1 DVV      -0.604100
     82 C50         -2.7190     1.1110     5.2020 cp         1 DVV      -0.134000
     83 C48         -3.5180     2.2400     5.0430 ca         1 DVV      -0.080000
     84 C73         -1.8310     0.6890     4.0880 cp         1 DVV      -0.157000
     85 C75         -0.5080     1.1410     4.0660 ca         1 DVV       0.191100
     86 O79         -0.0140     1.9260     5.0420 oh         1 DVV      -0.544100
     87 C76          0.3560     0.8010     3.0330 ca         1 DVV      -0.204000
     88 C77         -0.1070     0.0000     2.0000 ca         1 DVV       0.167100
     89 O78          0.7540    -0.3080     1.0130 oh         1 DVV      -0.543100
     90 C74         -1.4250    -0.4550     2.0040 ca         1 DVV      -0.236000
     91 C72         -2.2850    -0.1210     3.0390 ca         1 DVV       0.058700
     92 H69         -3.7990    -1.2340     2.0570 h1         1 DVV       0.077700
     93 H68         -4.7150     0.9480     3.7980 hn         1 DVV       0.318500
     94 H55         -7.5190     1.3390     2.7610 h1         1 DVV       0.108700
     95 H54         -5.2410     3.1940     3.0160 hn         1 DVV       0.316500
     96 H44         -6.2420     3.7100     6.4570 h1         1 DVV       0.114700
     97 H43         -4.5430     4.9270     4.3580 hn         1 DVV       0.317500
     98 H33         -4.1820     7.0790     4.4740 h1         1 DVV       0.100700
     99 H32         -4.5760     7.9060     7.2520 hn         1 DVV       0.343500
    100 H25         -1.7150     9.3830     7.3980 h1         1 DVV       0.115700
    101 H24         -2.9580    11.2970     5.7440 hn         1 DVV       0.335500
    102 H11         -1.9070    13.2740     5.4790 h1         1 DVV       0.102700
    103 H10         -0.6410    14.3670     7.9040 hn         1 DVV       0.340500
    104 H3           0.9820    15.7840     7.6620 h1         1 DVV       0.064700
    105 HN2          1.8390    16.4520     4.9670 hn         1 DVV       0.432000
    106 H11A         0.8840    18.5690     5.3680 h1         1 DVV       0.030033
    107 H12          0.3490    18.0150     6.9480 h1         1 DVV       0.030033
    108 H13         -0.4130    17.3810     5.4870 h1         1 DVV       0.030033
    109 H61A         2.6530    14.1530     5.6980 hc         1 DVV       0.053200
    110 H62A         2.0530    13.6110     7.2480 hc         1 DVV       0.053200
    111 H7           4.2640    14.0700     7.6190 hc         1 DVV       0.040700
    112 H81          4.3500    15.8580     9.2680 hc         1 DVV       0.033867
    113 H82          2.7740    15.0750     9.3710 hc         1 DVV       0.033867
    114 H83          2.9380    16.6440     8.5760 hc         1 DVV       0.033867
    115 H91          4.0930    16.7890     6.2640 hc         1 DVV       0.033867
    116 H92          5.5310    16.0600     6.9880 hc         1 DVV       0.033867
    117 H93          4.7980    15.3360     5.5580 hc         1 DVV       0.033867
    118 H14         -3.1660    15.1670     6.2950 h1         1 DVV       0.052700
    119 H15         -3.8960    15.1820     8.4120 ho         1 DVV       0.449000
    120 H18         -5.3180    13.0790     8.2800 ha         1 DVV       0.131000
    121 H20         -7.2390    11.8210     7.3970 ha         1 DVV       0.132000
    122 H38         -5.6910     9.8330     5.8070 ha         1 DVV       0.123000
    123 H37         -6.7520     6.3480     3.5800 ha         1 DVV       0.143000
    124 H63         -7.0680     7.0610     0.6230 ha         1 DVV       0.131000
    125 H61         -6.1900     4.8660    -0.0220 ha         1 DVV       0.141000
    126 H62         -9.0930     2.9790     2.5150 ha         1 DVV       0.147000
    127 H58         -7.6100     1.7660     0.4620 h1         1 DVV       0.069700
    128 H59         -5.5160     1.7720    -0.1910 ho         1 DVV       0.477000
    129 H1         -10.1380    10.8020     4.8460 h2         1 DVV       0.029700
    130 H5         -11.7190     9.6750     6.0900 h1         1 DVV       0.038700
    131 H6'1       -12.7140     7.1270     4.7340 h1         1 DVV       0.057700
    132 H6'2       -13.2180     7.7190     6.3150 h1         1 DVV       0.057700
    133 H6         -10.5690     7.0100     5.6660 ho         1 DVV       0.522000
    134 H4         -13.5460     9.2400     3.6770 h1         1 DVV       0.106700
    135 H19        -14.0700    10.4920     6.1490 ho         1 DVV       0.497000
    136 H16        -12.4610    11.8060     4.9060 h1         1 DVV       0.014700
    137 H2         -13.4750    12.6470     2.9840 ho         1 DVV       0.453000
    138 H22        -11.7340    10.4880     2.2550 h1         1 DVV       0.117700
    139 H21        -10.7280    12.8210     3.4860 ho         1 DVV       0.498000
    140 H17         -3.9490    13.7760     4.2760 ha         1 DVV       0.140000
    141 H281        -4.5880     9.9450     8.2920 hc         1 DVV       0.075200
    142 H282        -3.1740    10.5170     9.1370 hc         1 DVV       0.075200
    143 H311        -5.3110     8.4430     9.8260 hn         1 DVV       0.317000
    144 H312        -4.3890     7.1160    10.4050 hn         1 DVV       0.317000
    145 H49         -5.3380     2.0870     7.8760 ha         1 DVV       0.113000
    146 H51         -3.8230     0.2000     8.2770 ha         1 DVV       0.129000
    147 H53         -2.2430    -1.3550     5.7850 ho         1 DVV       0.561000
    148 H48         -3.3870     2.8160     4.1340 ha         1 DVV       0.096000
    149 H79         -0.6990     2.1220     5.6940 ho         1 DVV       0.475000
    150 H76          1.3780     1.1620     3.0350 ha         1 DVV       0.131000
    151 H78          0.3200    -0.8600     0.3530 ho         1 DVV       0.461000
    152 H74         -1.7770    -1.0840     1.1930 ha         1 DVV       0.115000
@<TRIPOS>BOND
     1     1     2 1   
     2     2     3 1   
     3     2     4 1   
     4     4     5 1   
     5     4    91 1   
     6     4    92 1   
     7     5     6 1   
     8     5    93 1   
     9     6     7 2   
    10     6     8 1   
    11     8     9 1   
    12     8    55 1   
    13     8    94 1   
    14     9    10 1   
    15     9    95 1   
    16    10    11 2   
    17    10    12 1   
    18    12    13 1   
    19    12    77 1   
    20    12    96 1   
    21    13    14 1   
    22    13    97 1   
    23    14    15 2   
    24    14    16 1   
    25    16    17 1   
    26    16    44 1   
    27    16    98 1   
    28    17    18 1   
    29    17    99 1   
    30    18    19 2   
    31    18    20 1   
    32    20    21 1   
    33    20    73 1   
    34    20   100 1   
    35    21    22 1   
    36    21   101 1   
    37    22    23 2   
    38    22    24 1   
    39    24    25 1   
    40    24    35 1   
    41    24   102 1   
    42    25    26 1   
    43    25   103 1   
    44    26    27 2   
    45    26    28 1   
    46    28    29 1   
    47    28    31 1   
    48    28   104 1   
    49    29    30 1   
    50    29   105 1   
    51    30   106 1   
    52    30   107 1   
    53    30   108 1   
    54    31    32 1   
    55    31   109 1   
    56    31   110 1   
    57    32    33 1   
    58    32    34 1   
    59    32   111 1   
    60    33   112 1   
    61    33   113 1   
    62    33   114 1   
    63    34   115 1   
    64    34   116 1   
    65    34   117 1   
    66    35    36 1   
    67    35    37 1   
    68    35   118 1   
    69    36   119 1   
    70    37    38 ar  
    71    37    72 ar  
    72    38    39 ar  
    73    38   120 1   
    74    39    40 ar  
    75    39   121 1   
    76    40    41 1   
    77    40    70 ar  
    78    41    42 1   
    79    42    43 ar  
    80    42    57 ar  
    81    43    44 ar  
    82    43   122 1   
    83    44    45 ar  
    84    45    46 ar  
    85    45   123 1   
    86    46    47 1   
    87    46    57 ar  
    88    47    48 1   
    89    48    49 ar  
    90    48    53 ar  
    91    49    50 ar  
    92    49   124 1   
    93    50    51 ar  
    94    50   125 1   
    95    51    52 ar  
    96    51    55 1   
    97    52    53 ar  
    98    52   126 1   
    99    53    54 1   
   100    55    56 1   
   101    55   127 1   
   102    56   128 1   
   103    57    58 1   
   104    58    59 1   
   105    59    60 1   
   106    59    68 1   
   107    59   129 1   
   108    60    61 1   
   109    61    62 1   
   110    61    64 1   
   111    61   130 1   
   112    62    63 1   
   113    62   131 1   
   114    62   132 1   
   115    63   133 1   
   116    64    65 1   
   117    64    66 1   
   118    64   134 1   
   119    65   135 1   
   120    66    67 1   
   121    66    68 1   
   122    66   136 1   
   123    67   137 1   
   124    68    69 1   
   125    68   138 1   
   126    69   139 1   
   127    70    71 1   
   128    70    72 ar  
   129    72   140 1   
   130    73    74 1   
   131    73   141 1   
   132    73   142 1   
   133    74    75 2   
   134    74    76 1   
   135    76   143 1   
   136    76   144 1   
   137    77    78 ar  
   138    77    83 ar  
   139    78    79 ar  
   140    78   145 1   
   141    79    80 ar  
   142    79   146 1   
   143    80    81 1   
   144    80    82 ar  
   145    81   147 1   
   146    82    83 ar  
   147    82    84 1   
   148    83   148 1   
   149    84    85 ar  
   150    84    91 ar  
   151    85    86 1   
   152    85    87 ar  
   153    86   149 1   
   154    87    88 ar  
   155    87   150 1   
   156    88    89 1   
   157    88    90 ar  
   158    89   151 1   
   159    90    91 ar  
   160    90   152 1   
@<TRIPOS>SUBSTRUCTURE
     1 DVV         1 TEMP              0 ****  ****    0 ROOT
