@<TRIPOS>MOLECULE
DVZ
   40    42     1     0     0
SMALL
abcg2


@<TRIPOS>ATOM
      1 C2           4.2330     2.4030     0.4200 ca         1 DVZ       0.177900
      2 C4           2.3500     1.2760     0.3510 ca         1 DVZ       0.140500
      3 C5           2.9930     0.0700     0.5650 ca         1 DVZ      -0.085600
      4 C6           4.3900     0.1260     0.7040 ca         1 DVZ       0.442900
      5 C8           0.9370    -0.4070     0.4090 cc         1 DVZ       0.423700
      6 N1           4.9810     1.3240     0.6240 nb         1 DVZ      -0.299000
      7 C1          -0.0130     1.8970    -0.1210 c5         1 DVZ       0.323300
      8 C7          -0.4870     1.7940    -1.5700 c5         1 DVZ       0.131300
      9 C3          -1.8610     2.4660    -1.4710 c5         1 DVZ       0.103300
     10 C9          -2.3330     1.9390    -0.1060 c5         1 DVZ       0.138300
     11 C10         -3.1810     0.6920    -0.2870 c3         1 DVZ       0.114800
     12 C82         -0.2040    -2.9080     0.1000 c3         1 DVZ      -0.071400
     13 C83         -1.5550    -3.6250    -0.1120 c          1 DVZ       0.748000
     14 N3           2.9200     2.4730     0.2710 nb         1 DVZ      -0.219000
     15 N51         -3.3790     0.0430     1.0200 n2         1 DVZ      -0.036200
     16 N52         -4.1180    -0.8050     1.2670 n1         1 DVZ       0.244000
     17 N53         -4.7350    -1.7350     1.6140 n2         1 DVZ      -0.157400
     18 N6           5.1380    -0.9590     0.9310 nv         1 DVZ      -1.060900
     19 N7           2.0950    -0.9660     0.6080 nd         1 DVZ      -0.548100
     20 N9           1.0200     0.9620     0.2450 na         1 DVZ      -0.291300
     21 O2           0.4380     2.3990    -2.4100 oh         1 DVZ      -0.660000
     22 O3          -1.6690     3.8500    -1.4650 oh         1 DVZ      -0.669000
     23 O31         -1.4900    -4.8400    -0.3440 o          1 DVZ      -0.727500
     24 O32         -2.5740    -2.9100    -0.0240 o          1 DVZ      -0.727500
     25 O4          -1.1610     1.6730     0.6570 os         1 DVZ      -0.422000
     26 S81         -0.6190    -1.1790     0.3960 ss         1 DVZ      -0.275200
     27 H1           4.7710     3.3440     0.3680 h5         1 DVZ       0.045100
     28 H2           0.4060     2.8920     0.0640 h2         1 DVZ       0.128700
     29 H3          -0.6380     0.7360    -1.8210 h1         1 DVZ       0.070700
     30 H4          -2.5340     2.1490    -2.2780 h1         1 DVZ       0.051700
     31 H5          -2.9290     2.6890     0.4210 h1         1 DVZ       0.076700
     32 H6          -4.1630     0.9540    -0.6840 h1         1 DVZ       0.115700
     33 H7          -2.7260    -0.0610    -0.9300 h1         1 DVZ       0.115700
     34 H8           0.3310    -3.3310     0.9510 h1         1 DVZ       0.073700
     35 H9           0.4380    -3.0000    -0.7770 h1         1 DVZ       0.073700
     36 H10         -5.6750    -1.5260     1.9680 hn         1 DVZ       0.481400
     37 H11          4.7360    -1.8780     0.8820 hn         1 DVZ       0.504000
     38 H12          6.1410    -0.8840     0.9150 hn         1 DVZ       0.504000
     39 H13          0.2430     2.1480    -3.3190 ho         1 DVZ       0.515000
     40 H14         -2.5270     4.2790    -1.3860 ho         1 DVZ       0.505000
@<TRIPOS>BOND
     1     1     6 ar  
     2     1    14 ar  
     3     1    27 1   
     4     2     3 ar  
     5     2    14 ar  
     6     2    20 1   
     7     3     4 ar  
     8     3    19 1   
     9     4     6 ar  
    10     4    18 1   
    11     5    19 2   
    12     5    20 1   
    13     5    26 1   
    14     7     8 1   
    15     7    20 1   
    16     7    25 1   
    17     7    28 1   
    18     8     9 1   
    19     8    21 1   
    20     8    29 1   
    21     9    10 1   
    22     9    22 1   
    23     9    30 1   
    24    10    11 1   
    25    10    25 1   
    26    10    31 1   
    27    11    15 1   
    28    11    32 1   
    29    11    33 1   
    30    12    13 1   
    31    12    26 1   
    32    12    34 1   
    33    12    35 1   
    34    13    23 1   
    35    13    24 1   
    36    15    16 2   
    37    16    17 2   
    38    17    36 1   
    39    18    37 1   
    40    18    38 1   
    41    21    39 1   
    42    22    40 1   
@<TRIPOS>SUBSTRUCTURE
     1 DVZ         1 TEMP              0 ****  ****    0 ROOT
