@<TRIPOS>MOLECULE
DVZ
   40    42     1     0     0
SMALL
No Charge or Current Charge


@<TRIPOS>ATOM
      1 C2           4.1460     2.3070     0.9280 ca         1 DVZ       0.177900
      2 C4           2.2300     1.2040     0.3360 ca         1 DVZ       0.140500
      3 C5           2.8770    -0.0020     0.5000 ca         1 DVZ      -0.085600
      4 C6           4.2280     0.0200     0.9060 ca         1 DVZ       0.442900
      5 C8           0.9080    -0.4950    -0.1220 cc         1 DVZ       0.423700
      6 N1           4.8710     1.1780     1.1190 nb         1 DVZ      -0.299000
      7 C1          -0.0920     1.8580    -0.4180 c5         1 DVZ       0.323300
      8 C7          -0.7160     1.7950    -1.8500 c5         1 DVZ       0.131300
      9 C3          -1.9690     2.6820    -1.5960 c5         1 DVZ       0.103300
     10 C9          -2.4300     2.1270    -0.1990 c5         1 DVZ       0.138300
     11 C10         -3.3840     0.9030    -0.2940 c3         1 DVZ       0.114800
     12 C82         -0.2030    -3.0840     0.1760 c3         1 DVZ      -0.071400
     13 C83         -1.4460    -3.9860     0.2150 c          1 DVZ       0.748000
     14 N3           2.8490     2.3830     0.5460 nb         1 DVZ      -0.219000
     15 N51         -3.6260     0.3330     1.0370 n2         1 DVZ      -0.036200
     16 N52         -4.0870    -0.8180     1.0700 n1         1 DVZ       0.244000
     17 N53         -3.6150    -1.4360     2.0320 n2         1 DVZ      -0.157400
     18 N6           4.9570    -1.1140     1.0950 nv         1 DVZ      -1.060900
     19 N7           2.0510    -1.0980     0.2260 nd         1 DVZ      -0.548100
     20 N9           0.9550     0.8990    -0.0520 na         1 DVZ      -0.291300
     21 O2           0.1050     2.3650    -2.8800 oh         1 DVZ      -0.660000
     22 O3          -1.5980     4.0740    -1.5500 oh         1 DVZ      -0.669000
     23 O31         -2.3690    -3.6520     0.9470 o          1 DVZ      -0.727500
     24 O32         -1.4720    -4.9760    -0.5020 o          1 DVZ      -0.727500
     25 O4          -1.2080     1.7490     0.4940 os         1 DVZ      -0.422000
     26 S81         -0.5810    -1.3730    -0.4520 ss         1 DVZ      -0.275200
     27 H1           4.6590     3.2520     1.1000 h5         1 DVZ       0.045100
     28 H2           0.3590     2.8510    -0.2870 h2         1 DVZ       0.128700
     29 H3          -1.0030     0.7710    -2.1170 h1         1 DVZ       0.070700
     30 H4          -2.7350     2.5190    -2.3680 h1         1 DVZ       0.051700
     31 H5          -2.9370     2.9060     0.3870 h1         1 DVZ       0.076700
     32 H6          -4.3310     1.2340    -0.7400 h1         1 DVZ       0.115700
     33 H7          -2.9530     0.1540    -0.9690 h1         1 DVZ       0.115700
     34 H8           0.1890    -3.0180     1.1970 h1         1 DVZ       0.073700
     35 H9           0.5570    -3.5490    -0.4620 h1         1 DVZ       0.073700
     36 H10         -3.1930    -2.3190     1.6910 hn         1 DVZ       0.481400
     37 H11          4.5580    -1.9760     0.7330 hn         1 DVZ       0.504000
     38 H12          5.9700    -1.0410     1.0900 hn         1 DVZ       0.504000
     39 H13         -0.1060     3.3300    -2.8540 ho         1 DVZ       0.515000
     40 H14         -2.4260     4.6050    -1.4670 ho         1 DVZ       0.505000
@<TRIPOS>BOND
     1     1     6 ar  
     2     1    14 ar  
     3     1    27 1   
     4     2     3 ar  
     5     2    14 ar  
     6     2    20 1   
     7     3     4 ar  
     8     3    19 1   
     9     4     6 ar  
    10     4    18 1   
    11     5    19 2   
    12     5    20 1   
    13     5    26 1   
    14     7     8 1   
    15     7    20 1   
    16     7    25 1   
    17     7    28 1   
    18     8     9 1   
    19     8    21 1   
    20     8    29 1   
    21     9    10 1   
    22     9    22 1   
    23     9    30 1   
    24    10    11 1   
    25    10    25 1   
    26    10    31 1   
    27    11    15 1   
    28    11    32 1   
    29    11    33 1   
    30    12    13 1   
    31    12    26 1   
    32    12    34 1   
    33    12    35 1   
    34    13    23 1   
    35    13    24 1   
    36    15    16 2   
    37    16    17 2   
    38    17    36 1   
    39    18    37 1   
    40    18    38 1   
    41    21    39 1   
    42    22    40 1   
@<TRIPOS>SUBSTRUCTURE
     1 DVZ         1 TEMP              0 ****  ****    0 ROOT
