@<TRIPOS>MOLECULE
DW0
   49    52     1     0     0
SMALL
abcg2


@<TRIPOS>ATOM
      1 N1           2.4930    -0.4440    -0.8080 n          1 DW0      -0.372900
      2 C2           2.9960    -1.6000    -0.2160 c          1 DW0       0.617000
      3 O2           2.4350    -2.6720    -0.3400 o          1 DW0      -0.547000
      4 N3           4.1540    -1.4900     0.5090 n          1 DW0      -0.359800
      5 C4           4.7390    -0.2660     0.6630 cc         1 DW0       0.439900
      6 C5           4.2060     0.8630     0.0940 cd         1 DW0      -0.356100
      7 C6           3.0160     0.8490    -0.6840 c          1 DW0       0.633100
      8 O6           2.4790     1.8130    -1.2000 o          1 DW0      -0.535000
      9 N7           5.0480     1.8840     0.4690 na         1 DW0      -0.111500
     10 C8           6.0030     1.3180     1.2120 cd         1 DW0       0.446900
     11 N9           5.8540     0.0120     1.3570 nc         1 DW0      -0.706000
     12 N10         -2.4660    -0.4410    -0.8110 n          1 DW0      -0.372900
     13 CA0         -1.2330    -0.6000    -1.5800 c3         1 DW0       0.103000
     14 CAA          4.9370     3.2860     0.1260 c3         1 DW0       0.061900
     15 CAC          4.7100    -2.6830     1.1250 c3         1 DW0       0.102300
     16 CAJ         -5.9840     1.3460     1.1730 cc         1 DW0       0.446900
     17 CAK          1.2600    -0.5930    -1.5800 c3         1 DW0       0.103000
     18 CAL          0.0130    -0.4510    -0.7190 c3         1 DW0      -0.114400
     19 NAN         -5.8350     0.0420     1.3350 nd         1 DW0      -0.706000
     20 CAP         -2.9890     0.8530    -0.7050 c          1 DW0       0.633100
     21 CAR         -2.9710    -1.5890    -0.2050 c          1 DW0       0.617000
     22 CAT         -4.7170    -0.2440     0.6480 cd         1 DW0       0.439900
     23 CAV         -4.1820     0.8770     0.0680 cc         1 DW0      -0.356100
     24 NAX         -5.0260     1.9030     0.4270 na         1 DW0      -0.111500
     25 NAZ         -4.1300    -1.4690     0.5150 n          1 DW0      -0.359800
     26 H8           6.8070     1.8970     1.6410 h5         1 DW0       0.062100
     27 HA0         -1.2530    -1.5750    -2.0620 h1         1 DW0       0.072200
     28 HA0A        -1.2370     0.1460    -2.3720 h1         1 DW0       0.072200
     29 HAA          4.0020     3.6960     0.4990 h1         1 DW0       0.065200
     30 HAAA         5.7660     3.8180     0.5830 h1         1 DW0       0.065200
     31 HAAB         4.9820     3.4170    -0.9520 h1         1 DW0       0.065200
     32 HAB         -3.9780     3.7140     0.4380 h1         1 DW0       0.065200
     33 HABA        -4.9570     3.4210    -1.0110 h1         1 DW0       0.065200
     34 HABB        -5.7420     3.8380     0.5190 h1         1 DW0       0.065200
     35 HAC          4.8870    -3.4510     0.3760 h1         1 DW0       0.059033
     36 HACA         5.6540    -2.4210     1.5890 h1         1 DW0       0.059033
     37 HACB         4.0390    -3.0770     1.8870 h1         1 DW0       0.059033
     38 HAD         -4.8620    -3.4330     0.4030 h1         1 DW0       0.059033
     39 HADA        -4.0230    -3.0380     1.9140 h1         1 DW0       0.059033
     40 HADB        -5.6360    -2.3860     1.5990 h1         1 DW0       0.059033
     41 HAJ         -6.7890     1.9290     1.5920 h5         1 DW0       0.062100
     42 HAK          1.2660     0.1610    -2.3650 h1         1 DW0       0.072200
     43 HAKA         1.2790    -1.5640    -2.0710 h1         1 DW0       0.072200
     44 HAL          0.0110     0.5270    -0.2340 hc         1 DW0       0.064700
     45 HALA         0.0150    -1.2100     0.0660 hc         1 DW0       0.064700
     46 CAB         -4.9130     3.3010     0.0680 c3         1 DW0       0.061900
     47 CAD         -4.6890    -2.6550     1.1430 c3         1 DW0       0.102300
     48 OAF         -2.4510     1.8110    -1.2320 o          1 DW0      -0.535000
     49 OAH         -2.4090    -2.6620    -0.3150 o          1 DW0      -0.547000
@<TRIPOS>BOND
     1     1     2 1   
     2     1     7 1   
     3     1    17 1   
     4     2     3 2   
     5     2     4 1   
     6     4     5 1   
     7     4    15 1   
     8     5     6 2   
     9     5    11 1   
    10     6     7 1   
    11     6     9 1   
    12     7     8 2   
    13     9    10 1   
    14     9    14 1   
    15    10    11 2   
    16    10    26 1   
    17    12    13 1   
    18    12    20 1   
    19    12    21 1   
    20    13    18 1   
    21    13    27 1   
    22    13    28 1   
    23    14    29 1   
    24    14    30 1   
    25    14    31 1   
    26    15    35 1   
    27    15    36 1   
    28    15    37 1   
    29    16    19 2   
    30    16    24 1   
    31    16    41 1   
    32    17    18 1   
    33    17    42 1   
    34    17    43 1   
    35    18    44 1   
    36    18    45 1   
    37    19    22 1   
    38    20    23 1   
    39    20    48 2   
    40    21    25 1   
    41    21    49 2   
    42    22    23 2   
    43    22    25 1   
    44    23    24 1   
    45    24    46 1   
    46    25    47 1   
    47    32    46 1   
    48    33    46 1   
    49    34    46 1   
    50    38    47 1   
    51    39    47 1   
    52    40    47 1   
@<TRIPOS>SUBSTRUCTURE
     1 DW0         1 TEMP              0 ****  ****    0 ROOT
