@<TRIPOS>MOLECULE
DW0
   49    52     1     0     0
SMALL
No Charge or Current Charge


@<TRIPOS>ATOM
      1 N1           2.5330    -0.4620    -0.7800 n          1 DW0      -0.372900
      2 C2           3.1020    -1.6170    -0.2070 c          1 DW0       0.617000
      3 O2           2.5770    -2.7150    -0.3400 o          1 DW0      -0.547000
      4 N3           4.2900    -1.4800     0.5310 n          1 DW0      -0.359800
      5 C4           4.8620    -0.2390     0.6760 cc         1 DW0       0.439900
      6 C5           4.3220     0.8640     0.1200 cd         1 DW0      -0.356100
      7 C6           3.0910     0.8200    -0.6700 c          1 DW0       0.633100
      8 O6           2.5970     1.8150    -1.1790 o          1 DW0      -0.535000
      9 N7           5.1650     1.9070     0.4750 na         1 DW0      -0.111500
     10 C8           6.1830     1.3510     1.2420 cd         1 DW0       0.446900
     11 N9           6.0020     0.0390     1.3670 nc         1 DW0      -0.706000
     12 N10         -2.5090    -0.4600    -0.7870 n          1 DW0      -0.372900
     13 CA0         -1.2710    -0.6130    -1.6010 c3         1 DW0       0.103000
     14 CAA          5.0210     3.3260     0.1170 c3         1 DW0       0.061900
     15 CAC          4.8870    -2.6940     1.1420 c3         1 DW0       0.102300
     16 CAJ         -6.1630     1.3830     1.1970 cc         1 DW0       0.446900
     17 CAK          1.2980    -0.6140    -1.5980 c3         1 DW0       0.103000
     18 CAL          0.0120    -0.4600    -0.7610 c3         1 DW0      -0.114400
     19 NAN         -6.0010     0.0750     1.3410 nd         1 DW0      -0.706000
     20 CAP         -3.0670     0.8200    -0.6780 c          1 DW0       0.633100
     21 CAR         -3.0800    -1.6120    -0.2170 c          1 DW0       0.617000
     22 CAT         -4.8460    -0.2360     0.6620 cd         1 DW0       0.439900
     23 CAV         -4.3020     0.8750     0.1030 cc         1 DW0      -0.356100
     24 NAX         -5.1410     1.9200     0.4410 na         1 DW0      -0.111500
     25 NAZ         -4.2640    -1.4710     0.5220 n          1 DW0      -0.359800
     26 H8           6.9900     1.9430     1.6570 h5         1 DW0       0.062100
     27 HA0         -1.2670    -1.5950    -2.0940 h1         1 DW0       0.072200
     28 HA0A        -1.2640     0.1300    -2.4100 h1         1 DW0       0.072200
     29 HAA          4.0690     3.7080     0.5070 h1         1 DW0       0.065200
     30 HAAA         5.8450     3.9090     0.5470 h1         1 DW0       0.065200
     31 HAAB         5.0340     3.4330    -0.9740 h1         1 DW0       0.065200
     32 HAB         -4.0350     3.7150     0.4680 h1         1 DW0       0.065200
     33 HABA        -4.9890     3.4340    -1.0190 h1         1 DW0       0.065200
     34 HABB        -5.8110     3.9270     0.4910 h1         1 DW0       0.065200
     35 HAC          5.0370    -3.4610     0.3720 h1         1 DW0       0.059033
     36 HACA         5.8570    -2.4770     1.6040 h1         1 DW0       0.059033
     37 HACB         4.2120    -3.0890     1.9120 h1         1 DW0       0.059033
     38 HAD         -5.1830    -3.3750     0.3440 h1         1 DW0       0.059033
     39 HADA        -4.1310    -3.1790     1.7760 h1         1 DW0       0.059033
     40 HADB        -5.7430    -2.4270     1.7460 h1         1 DW0       0.059033
     41 HAJ         -6.9710     1.9840     1.5990 h5         1 DW0       0.062100
     42 HAK          1.2940     0.1290    -2.4060 h1         1 DW0       0.072200
     43 HAKA         1.2950    -1.5960    -2.0910 h1         1 DW0       0.072200
     44 HAL          0.0120     0.5250    -0.2790 hc         1 DW0       0.064700
     45 HALA         0.0110    -1.2100     0.0390 hc         1 DW0       0.064700
     46 CAB         -4.9860     3.3360     0.0740 c3         1 DW0       0.061900
     47 CAD         -4.8690    -2.6800     1.1340 c3         1 DW0       0.102300
     48 OAF         -2.5660     1.8120    -1.1870 o          1 DW0      -0.535000
     49 OAH         -2.5600    -2.7110    -0.3520 o          1 DW0      -0.547000
@<TRIPOS>BOND
     1     1     2 1   
     2     1     7 1   
     3     1    17 1   
     4     2     3 2   
     5     2     4 1   
     6     4     5 1   
     7     4    15 1   
     8     5     6 2   
     9     5    11 1   
    10     6     7 1   
    11     6     9 1   
    12     7     8 2   
    13     9    10 1   
    14     9    14 1   
    15    10    11 2   
    16    10    26 1   
    17    12    13 1   
    18    12    20 1   
    19    12    21 1   
    20    13    18 1   
    21    13    27 1   
    22    13    28 1   
    23    14    29 1   
    24    14    30 1   
    25    14    31 1   
    26    15    35 1   
    27    15    36 1   
    28    15    37 1   
    29    16    19 2   
    30    16    24 1   
    31    16    41 1   
    32    17    18 1   
    33    17    42 1   
    34    17    43 1   
    35    18    44 1   
    36    18    45 1   
    37    19    22 1   
    38    20    23 1   
    39    20    48 2   
    40    21    25 1   
    41    21    49 2   
    42    22    23 2   
    43    22    25 1   
    44    23    24 1   
    45    24    46 1   
    46    25    47 1   
    47    32    46 1   
    48    33    46 1   
    49    34    46 1   
    50    38    47 1   
    51    39    47 1   
    52    40    47 1   
@<TRIPOS>SUBSTRUCTURE
     1 DW0         1 TEMP              0 ****  ****    0 ROOT
