@<TRIPOS>MOLECULE
DW3
    8     7     1     0     0
SMALL
No Charge or Current Charge


@<TRIPOS>ATOM
      1 C02          3.0640   -38.6020    31.8250 c          1 DW3       0.530900
      2 C03          4.3790   -38.8960    32.5930 c3         1 DW3       0.040600
      3 O01          2.5120   -37.5050    31.8140 o          1 DW3      -0.503100
      4 O04          5.1310   -37.7010    32.9330 oh         1 DW3      -0.634000
      5 H1           2.6320   -39.4660    31.2740 h4         1 DW3      -0.011800
      6 H2           4.1070   -39.4590    33.4960 h1         1 DW3       0.062200
      7 H3           4.9810   -39.5640    31.9630 h1         1 DW3       0.062200
      8 H4           4.4840   -37.0280    33.2520 ho         1 DW3       0.454000
@<TRIPOS>BOND
     1     1     2 1   
     2     1     3 2   
     3     1     5 1   
     4     2     4 1   
     5     2     6 1   
     6     2     7 1   
     7     4     8 1   
@<TRIPOS>SUBSTRUCTURE
     1 DW3         1 TEMP              0 ****  ****    0 ROOT
