@<TRIPOS>MOLECULE
DW3
    8     7     1     0     0
SMALL
abcg2


@<TRIPOS>ATOM
      1 C02          3.0800   -38.5960    31.8180 c          1 DW3       0.530900
      2 C03          4.3580   -38.8440    32.5620 c3         1 DW3       0.040600
      3 O01          2.6230   -37.5040    31.5940 o          1 DW3      -0.503100
      4 O04          5.0700   -37.6930    32.8950 oh         1 DW3      -0.634000
      5 H1           2.5650   -39.5190    31.4980 h4         1 DW3      -0.011800
      6 H2           4.0980   -39.4710    33.4290 h1         1 DW3       0.062200
      7 H3           4.9900   -39.4730    31.9280 h1         1 DW3       0.062200
      8 H4           4.5060   -37.1210    33.4260 ho         1 DW3       0.454000
@<TRIPOS>BOND
     1     1     2 1   
     2     1     3 2   
     3     1     5 1   
     4     2     4 1   
     5     2     6 1   
     6     2     7 1   
     7     4     8 1   
@<TRIPOS>SUBSTRUCTURE
     1 DW3         1 TEMP              0 ****  ****    0 ROOT
