@<TRIPOS>MOLECULE
DW4
   83    86     1     0     0
SMALL
No Charge or Current Charge


@<TRIPOS>ATOM
      1 C33         85.0860   -48.1900   141.1440 c          1 DW4       0.646100
      2 O42         85.2620   -49.1930   141.8170 o          1 DW4      -0.544000
      3 O34         84.4720   -47.0440   141.5500 os         1 DW4      -0.457100
      4 C35         84.0560   -46.9420   142.9250 c3         1 DW4       0.229900
      5 C36         85.2810   -46.7340   143.8130 ca         1 DW4      -0.119300
      6 C37         85.6390   -47.6980   144.7770 ca         1 DW4      -0.087500
      7 C38         86.7670   -47.5000   145.5930 ca         1 DW4      -0.115000
      8 C39         87.5430   -46.3370   145.4520 ca         1 DW4      -0.104000
      9 C40         87.1910   -45.3720   144.4940 ca         1 DW4      -0.115000
     10 C41         86.0630   -45.5700   143.6770 ca         1 DW4      -0.087500
     11 N18         84.0440   -47.4550   133.7900 ns         1 DW4      -0.510900
     12 C19         82.7320   -48.1070   133.6850 c3         1 DW4       0.089000
     13 C20         82.7020   -49.5190   134.3120 c3         1 DW4       0.058600
     14 N29         83.1200   -49.5530   135.7240 na         1 DW4       0.114800
     15 C02         86.8550   -48.4030   137.8040 c          1 DW4       0.594100
     16 C25         86.1480   -49.0700   139.0270 c3         1 DW4       0.060700
     17 C26         85.1840   -50.2220   138.6260 c3         1 DW4      -0.102700
     18 C27         84.1870   -49.8450   137.5620 cc         1 DW4       0.178300
     19 C28         84.2080   -50.2030   136.2540 cd         1 DW4      -0.179000
     20 N30         82.4450   -48.8740   136.7080 nd         1 DW4      -0.223800
     21 N31         83.1020   -49.0590   137.8260 nc         1 DW4      -0.350000
     22 N32         85.4650   -48.0440   139.8430 ns         1 DW4      -0.490900
     23 N13         88.0400   -47.7750   133.6050 ns         1 DW4      -0.492900
     24 C14         87.3610   -47.3900   132.3540 c3         1 DW4       0.103700
     25 C15         86.8230   -45.9370   132.4480 c3         1 DW4      -0.076400
     26 C16         85.7480   -45.6950   133.5440 c3         1 DW4      -0.154400
     27 C17         84.3790   -46.2750   133.1710 c          1 DW4       0.595100
     28 O21         83.6140   -45.7080   132.4050 o          1 DW4      -0.616100
     29 C22         88.2990   -47.5770   131.1300 c3         1 DW4       0.147600
     30 O23         88.7600   -48.9350   131.0360 oh         1 DW4      -0.655000
     31 N03         87.5970   -49.2470   137.0030 ns         1 DW4      -0.479900
     32 C04         88.3940   -48.7970   135.8370 c3         1 DW4       0.037700
     33 C12         87.4860   -48.5560   134.5960 c          1 DW4       0.595100
     34 O24         86.3490   -48.9970   134.4980 o          1 DW4      -0.611100
     35 C05         89.5330   -49.8030   135.5240 c3         1 DW4      -0.084400
     36 C06         90.5130   -50.1270   136.6970 c6         1 DW4      -0.061700
     37 C11         91.5520   -51.1990   136.2630 c6         1 DW4      -0.072900
     38 C10         92.5300   -51.5480   137.4120 c6         1 DW4      -0.073400
     39 C09         93.2470   -50.2810   137.9380 c6         1 DW4      -0.075400
     40 C08         92.2230   -49.2080   138.3800 c6         1 DW4      -0.073400
     41 C07         91.2410   -48.8600   137.2340 c6         1 DW4      -0.072900
     42 H35         83.3870   -46.0810   143.0490 h1         1 DW4       0.070200
     43 H36         83.4960   -47.8340   143.2370 h1         1 DW4       0.070200
     44 H37         85.0470   -48.6040   144.8930 ha         1 DW4       0.117500
     45 H38         87.0390   -48.2480   146.3350 ha         1 DW4       0.112000
     46 H39         88.4150   -46.1840   146.0840 ha         1 DW4       0.111000
     47 H40         87.7910   -44.4720   144.3830 ha         1 DW4       0.112000
     48 H41         85.7980   -44.8190   142.9360 ha         1 DW4       0.117500
     49 H23         82.4530   -48.1810   132.6250 h1         1 DW4       0.071700
     50 H24         81.9870   -47.4740   134.1850 h1         1 DW4       0.071700
     51 H26         83.3650   -50.1770   133.7380 h1         1 DW4       0.083700
     52 H25         81.6860   -49.9240   134.2410 h1         1 DW4       0.083700
     53 H30         86.9480   -49.5010   139.6430 h1         1 DW4       0.079700
     54 H31         84.6540   -50.5860   139.5140 hc         1 DW4       0.073200
     55 H32         85.7770   -51.0720   138.2700 hc         1 DW4       0.073200
     56 H33         84.8990   -50.8070   135.6800 h4         1 DW4       0.199000
     57 H34         85.2570   -47.1470   139.4190 hn         1 DW4       0.351500
     58 H16         88.9920   -47.4610   133.7480 hn         1 DW4       0.307500
     59 H17         86.5030   -48.0590   132.1950 h1         1 DW4       0.107700
     60 H18         87.6710   -45.2660   132.6370 hc         1 DW4       0.057200
     61 H19         86.4090   -45.6390   131.4760 hc         1 DW4       0.057200
     62 H20         86.0950   -46.1250   134.4890 hc         1 DW4       0.068200
     63 H21         85.6310   -44.6110   133.6610 hc         1 DW4       0.068200
     64 H27         89.1530   -46.8940   131.2260 h1         1 DW4       0.026700
     65 H28         87.7530   -47.3020   130.2180 h1         1 DW4       0.026700
     66 H29         89.3520   -48.9840   130.2530 ho         1 DW4       0.443000
     67 H3          87.6110   -50.2290   137.2510 hn         1 DW4       0.330500
     68 H4          88.8440   -47.8260   136.0820 h1         1 DW4       0.073700
     69 H5          89.0710   -50.7350   135.1730 hc         1 DW4       0.060200
     70 H6          90.1080   -49.4200   134.6710 hc         1 DW4       0.060200
     71 H7          89.9100   -50.5530   137.5120 hc         1 DW4       0.046700
     72 H15         92.1210   -50.8380   135.3950 hc         1 DW4       0.039200
     73 H14         91.0350   -52.1120   135.9360 hc         1 DW4       0.039200
     74 H2          93.2730   -52.2770   137.0610 hc         1 DW4       0.041700
     75 H1          91.9810   -52.0310   138.2320 hc         1 DW4       0.041700
     76 H13         93.8980   -49.8710   137.1540 hc         1 DW4       0.040200
     77 H12         93.9000   -50.5450   138.7810 hc         1 DW4       0.040200
     78 H11         91.6600   -49.5710   139.2520 hc         1 DW4       0.041700
     79 H10         92.7520   -48.3020   138.7060 hc         1 DW4       0.041700
     80 H8          91.7870   -48.3680   136.4170 hc         1 DW4       0.039200
     81 H9          90.5110   -48.1280   137.6070 hc         1 DW4       0.039200
     82 H22         84.7730   -47.9050   134.3410 hn         1 DW4       0.329500
     83 O01         86.7750   -47.2040   137.5610 o          1 DW4      -0.629100
@<TRIPOS>BOND
     1     1     2 2   
     2     1     3 1   
     3     1    22 1   
     4     3     4 1   
     5     4     5 1   
     6     4    42 1   
     7     4    43 1   
     8     5     6 ar  
     9     5    10 ar  
    10     6     7 ar  
    11     6    44 1   
    12     7     8 ar  
    13     7    45 1   
    14     8     9 ar  
    15     8    46 1   
    16     9    10 ar  
    17     9    47 1   
    18    10    48 1   
    19    11    12 1   
    20    11    27 1   
    21    11    82 1   
    22    12    13 1   
    23    12    49 1   
    24    12    50 1   
    25    13    14 1   
    26    13    51 1   
    27    13    52 1   
    28    14    19 1   
    29    14    20 1   
    30    15    16 1   
    31    15    31 1   
    32    15    83 2   
    33    16    17 1   
    34    16    22 1   
    35    16    53 1   
    36    17    18 1   
    37    17    54 1   
    38    17    55 1   
    39    18    19 2   
    40    18    21 1   
    41    19    56 1   
    42    20    21 2   
    43    22    57 1   
    44    23    24 1   
    45    23    33 1   
    46    23    58 1   
    47    24    25 1   
    48    24    29 1   
    49    24    59 1   
    50    25    26 1   
    51    25    60 1   
    52    25    61 1   
    53    26    27 1   
    54    26    62 1   
    55    26    63 1   
    56    27    28 2   
    57    29    30 1   
    58    29    64 1   
    59    29    65 1   
    60    30    66 1   
    61    31    32 1   
    62    31    67 1   
    63    32    33 1   
    64    32    35 1   
    65    32    68 1   
    66    33    34 2   
    67    35    36 1   
    68    35    69 1   
    69    35    70 1   
    70    36    37 1   
    71    36    41 1   
    72    36    71 1   
    73    37    38 1   
    74    37    72 1   
    75    37    73 1   
    76    38    39 1   
    77    38    74 1   
    78    38    75 1   
    79    39    40 1   
    80    39    76 1   
    81    39    77 1   
    82    40    41 1   
    83    40    78 1   
    84    40    79 1   
    85    41    80 1   
    86    41    81 1   
@<TRIPOS>SUBSTRUCTURE
     1 DW4         1 TEMP              0 ****  ****    0 ROOT
