@<TRIPOS>MOLECULE
DW4
   83    86     1     0     0
SMALL
abcg2


@<TRIPOS>ATOM
      1 C33         85.0240   -48.3870   140.7950 c          1 DW4       0.646100
      2 O42         85.1490   -49.3980   141.4680 o          1 DW4      -0.544000
      3 O34         84.4390   -47.2480   141.2370 os         1 DW4      -0.457100
      4 C35         84.0850   -47.2130   142.6350 c3         1 DW4       0.229900
      5 C36         85.2840   -47.0410   143.5300 ca         1 DW4      -0.119300
      6 C37         85.3930   -47.7820   144.7040 ca         1 DW4      -0.087500
      7 C38         86.4820   -47.6050   145.5530 ca         1 DW4      -0.115000
      8 C39         87.4780   -46.6910   145.2270 ca         1 DW4      -0.104000
      9 C40         87.3780   -45.9520   144.0510 ca         1 DW4      -0.115000
     10 C41         86.2840   -46.1230   143.2100 ca         1 DW4      -0.087500
     11 N18         83.8120   -46.5920   134.4210 ns         1 DW4      -0.510900
     12 C19         82.4250   -47.0100   134.4620 c3         1 DW4       0.089000
     13 C20         82.2470   -48.5240   134.5650 c3         1 DW4       0.058600
     14 N29         82.7700   -49.0550   135.8140 na         1 DW4       0.114800
     15 C02         86.8430   -48.6670   137.6280 c          1 DW4       0.594100
     16 C25         86.0790   -49.3070   138.7890 c3         1 DW4       0.060700
     17 C26         85.0750   -50.3770   138.2830 c3         1 DW4      -0.102700
     18 C27         83.9940   -49.8310   137.4160 cc         1 DW4       0.178300
     19 C28         84.0090   -49.5200   136.0730 cd         1 DW4      -0.179000
     20 N30         82.0160   -49.0610   136.9230 nd         1 DW4      -0.223800
     21 N31         82.7550   -49.5310   137.8950 nc         1 DW4      -0.350000
     22 N32         85.4380   -48.2450   139.5240 ns         1 DW4      -0.490900
     23 N13         87.9800   -48.0500   133.7520 ns         1 DW4      -0.492900
     24 C14         87.3200   -47.8430   132.4710 c3         1 DW4       0.103700
     25 C15         86.8860   -46.3820   132.3310 c3         1 DW4      -0.076400
     26 C16         85.9120   -45.9270   133.4100 c3         1 DW4      -0.154400
     27 C17         84.5240   -46.5300   133.2750 c          1 DW4       0.595100
     28 O21         84.0590   -46.8910   132.1930 o          1 DW4      -0.616100
     29 C22         88.2290   -48.2490   131.3200 c3         1 DW4       0.147600
     30 O23         88.5080   -49.6450   131.4200 oh         1 DW4      -0.655000
     31 N03         87.7760   -49.4430   137.0580 ns         1 DW4      -0.479900
     32 C04         88.5300   -49.0090   135.9010 c3         1 DW4       0.037700
     33 C12         87.6450   -48.9920   134.6440 c          1 DW4       0.595100
     34 O24         86.7340   -49.8030   134.4850 o          1 DW4      -0.611100
     35 C05         89.7400   -49.9190   135.6650 c3         1 DW4      -0.084400
     36 C06         90.7410   -49.9900   136.8220 c6         1 DW4      -0.061700
     37 C11         91.8950   -50.9280   136.4450 c6         1 DW4      -0.072900
     38 C10         92.9370   -51.0400   137.5590 c6         1 DW4      -0.073400
     39 C09         93.4680   -49.6630   137.9640 c6         1 DW4      -0.075400
     40 C08         92.3230   -48.7240   138.3490 c6         1 DW4      -0.073400
     41 C07         91.2810   -48.6160   137.2340 c6         1 DW4      -0.072900
     42 H35         83.4160   -46.3560   142.7100 h1         1 DW4       0.070200
     43 H36         83.5330   -48.1140   142.8970 h1         1 DW4       0.070200
     44 H37         84.6260   -48.5070   144.9520 ha         1 DW4       0.117500
     45 H38         86.5560   -48.1880   146.4630 ha         1 DW4       0.112000
     46 H39         88.3300   -46.5570   145.8820 ha         1 DW4       0.111000
     47 H40         88.1500   -45.2390   143.7900 ha         1 DW4       0.112000
     48 H41         86.2090   -45.5460   142.2970 ha         1 DW4       0.117500
     49 H23         81.9280   -46.6740   133.5530 h1         1 DW4       0.071700
     50 H24         81.9490   -46.5260   135.3150 h1         1 DW4       0.071700
     51 H26         82.7650   -49.0250   133.7500 h1         1 DW4       0.083700
     52 H25         81.1890   -48.7740   134.5180 h1         1 DW4       0.083700
     53 H30         86.7930   -49.8130   139.4400 h1         1 DW4       0.079700
     54 H31         84.6260   -50.8390   139.1620 hc         1 DW4       0.073200
     55 H32         85.6330   -51.1500   137.7550 hc         1 DW4       0.073200
     56 H33         84.7810   -49.5940   135.3250 h4         1 DW4       0.199000
     57 H34         85.3070   -47.3660   139.0440 hn         1 DW4       0.351500
     58 H16         88.7400   -47.4270   133.9820 hn         1 DW4       0.307500
     59 H17         86.4460   -48.4940   132.4670 h1         1 DW4       0.107700
     60 H18         87.7740   -45.7440   132.3650 hc         1 DW4       0.057200
     61 H19         86.4310   -46.2470   131.3490 hc         1 DW4       0.057200
     62 H20         86.3080   -46.1320   134.4060 hc         1 DW4       0.068200
     63 H21         85.7810   -44.8420   133.3450 hc         1 DW4       0.068200
     64 H27         89.1560   -47.6660   131.3630 h1         1 DW4       0.026700
     65 H28         87.7240   -48.0220   130.3760 h1         1 DW4       0.026700
     66 H29         89.1700   -49.8700   130.7550 ho         1 DW4       0.443000
     67 H3          87.9010   -50.3860   137.3890 hn         1 DW4       0.330500
     68 H4          88.8660   -47.9890   136.0880 h1         1 DW4       0.073700
     69 H5          89.3780   -50.9260   135.4350 hc         1 DW4       0.060200
     70 H6          90.2530   -49.5560   134.7710 hc         1 DW4       0.060200
     71 H7          90.2380   -50.4230   137.6960 hc         1 DW4       0.046700
     72 H15         92.3750   -50.5420   135.5380 hc         1 DW4       0.039200
     73 H14         91.4980   -51.9160   136.1960 hc         1 DW4       0.039200
     74 H2          93.7600   -51.6840   137.2370 hc         1 DW4       0.041700
     75 H1          92.4820   -51.5210   138.4320 hc         1 DW4       0.041700
     76 H13         94.0190   -49.2300   137.1220 hc         1 DW4       0.040200
     77 H12         94.1750   -49.7570   138.7920 hc         1 DW4       0.040200
     78 H11         91.8380   -49.1040   139.2550 hc         1 DW4       0.041700
     79 H10         92.7120   -47.7320   138.5920 hc         1 DW4       0.041700
     80 H8          91.7300   -48.1350   136.3560 hc         1 DW4       0.039200
     81 H9          90.4640   -47.9690   137.5630 hc         1 DW4       0.039200
     82 H22         84.2550   -46.3110   135.2800 hn         1 DW4       0.329500
     83 O01         86.5960   -47.5240   137.2460 o          1 DW4      -0.629100
@<TRIPOS>BOND
     1     1     2 2   
     2     1     3 1   
     3     1    22 1   
     4     3     4 1   
     5     4     5 1   
     6     4    42 1   
     7     4    43 1   
     8     5     6 ar  
     9     5    10 ar  
    10     6     7 ar  
    11     6    44 1   
    12     7     8 ar  
    13     7    45 1   
    14     8     9 ar  
    15     8    46 1   
    16     9    10 ar  
    17     9    47 1   
    18    10    48 1   
    19    11    12 1   
    20    11    27 1   
    21    11    82 1   
    22    12    13 1   
    23    12    49 1   
    24    12    50 1   
    25    13    14 1   
    26    13    51 1   
    27    13    52 1   
    28    14    19 1   
    29    14    20 1   
    30    15    16 1   
    31    15    31 1   
    32    15    83 2   
    33    16    17 1   
    34    16    22 1   
    35    16    53 1   
    36    17    18 1   
    37    17    54 1   
    38    17    55 1   
    39    18    19 2   
    40    18    21 1   
    41    19    56 1   
    42    20    21 2   
    43    22    57 1   
    44    23    24 1   
    45    23    33 1   
    46    23    58 1   
    47    24    25 1   
    48    24    29 1   
    49    24    59 1   
    50    25    26 1   
    51    25    60 1   
    52    25    61 1   
    53    26    27 1   
    54    26    62 1   
    55    26    63 1   
    56    27    28 2   
    57    29    30 1   
    58    29    64 1   
    59    29    65 1   
    60    30    66 1   
    61    31    32 1   
    62    31    67 1   
    63    32    33 1   
    64    32    35 1   
    65    32    68 1   
    66    33    34 2   
    67    35    36 1   
    68    35    69 1   
    69    35    70 1   
    70    36    37 1   
    71    36    41 1   
    72    36    71 1   
    73    37    38 1   
    74    37    72 1   
    75    37    73 1   
    76    38    39 1   
    77    38    74 1   
    78    38    75 1   
    79    39    40 1   
    80    39    76 1   
    81    39    77 1   
    82    40    41 1   
    83    40    78 1   
    84    40    79 1   
    85    41    80 1   
    86    41    81 1   
@<TRIPOS>SUBSTRUCTURE
     1 DW4         1 TEMP              0 ****  ****    0 ROOT
