@<TRIPOS>MOLECULE
DW7
   86    89     1     0     0
SMALL
No Charge or Current Charge


@<TRIPOS>ATOM
      1 C34         -2.9410     2.3360    10.2770 c          1 DW7       0.645100
      2 O43         -2.9660     2.9380    11.3390 o          1 DW7      -0.546000
      3 O35         -2.4810     1.0700    10.0790 os         1 DW7      -0.450100
      4 C36         -2.0590     0.3090    11.2260 c3         1 DW7       0.228900
      5 C37         -3.2860    -0.1380    12.0190 ca         1 DW7      -0.115300
      6 C38         -4.2240    -1.0140    11.4360 ca         1 DW7      -0.090000
      7 C39         -5.3540    -1.4300    12.1620 ca         1 DW7      -0.113500
      8 C40         -5.5530    -0.9740    13.4750 ca         1 DW7      -0.106000
      9 C41         -4.6220    -0.1010    14.0630 ca         1 DW7      -0.113500
     10 C42         -3.4920     0.3150    13.3380 ca         1 DW7      -0.090000
     11 N18         -2.0900     4.4000     1.8400 ns         1 DW7      -0.512900
     12 C19         -2.0190     5.1380     3.1010 c3         1 DW7       0.104000
     13 C20         -0.5600     5.5230     3.4200 c3         1 DW7      -0.113400
     14 C21         -0.4000     6.4070     4.6790 c3         1 DW7       0.087600
     15 N30         -0.8730     5.7850     5.9280 na         1 DW7       0.107800
     16 C29         -1.8680     6.2400     6.7520 cc         1 DW7      -0.190000
     17 C28         -1.9020     5.3120     7.7500 cd         1 DW7       0.200300
     18 C27         -2.8160     5.2870     8.9460 c3         1 DW7      -0.111700
     19 C26         -3.9160     4.1930     8.8690 c3         1 DW7       0.059700
     20 N33         -3.3620     2.8400     9.0810 ns         1 DW7      -0.480900
     21 C02         -4.7360     4.2380     7.5410 c          1 DW7       0.592100
     22 O01         -4.8390     3.2740     6.7910 o          1 DW7      -0.611100
     23 N32         -0.9300     4.3610     7.5240 nd         1 DW7      -0.352000
     24 N31         -0.3000     4.6480     6.4150 nc         1 DW7      -0.204800
     25 N13         -6.1730     5.9510     3.6690 ns         1 DW7      -0.495900
     26 C14         -5.6720     6.3200     2.3350 c3         1 DW7       0.103700
     27 C15         -5.5940     5.0590     1.4390 c3         1 DW7      -0.075400
     28 C16         -4.5740     3.9740     1.8980 c3         1 DW7      -0.157400
     29 C17         -3.2320     4.0670     1.1480 c          1 DW7       0.604100
     30 O22         -3.1400     3.7550    -0.0280 o          1 DW7      -0.614100
     31 C23         -6.5500     7.4300     1.6930 c3         1 DW7       0.147600
     32 O24         -6.5820     8.6090     2.5140 oh         1 DW7      -0.662000
     33 N03         -5.3550     5.4390     7.2590 ns         1 DW7      -0.481900
     34 C04         -6.2730     5.6520     6.1170 c3         1 DW7       0.040700
     35 C12         -5.5110     6.1640     4.8600 c          1 DW7       0.596100
     36 O25         -4.4090     6.6940     4.9050 o          1 DW7      -0.610100
     37 C05         -7.4270     6.6120     6.5120 c3         1 DW7      -0.087400
     38 C06         -8.2600     6.2090     7.7720 c6         1 DW7      -0.062700
     39 C11         -9.3320     7.2900     8.0890 c6         1 DW7      -0.072900
     40 C10        -10.1640     6.9210     9.3410 c6         1 DW7      -0.073400
     41 C09        -10.8270     5.5320     9.1820 c6         1 DW7      -0.075400
     42 C08         -9.7700     4.4460     8.8720 c6         1 DW7      -0.073400
     43 C07         -8.9330     4.8130     7.6220 c6         1 DW7      -0.072900
     44 H37         -1.5120    -0.5860    10.9000 h1         1 DW7       0.070700
     45 H38         -1.3780     0.8920    11.8600 h1         1 DW7       0.070700
     46 H39         -4.0770    -1.3710    10.4180 ha         1 DW7       0.117000
     47 H40         -6.0740    -2.1050    11.7050 ha         1 DW7       0.111500
     48 H41         -6.4280    -1.2960    14.0370 ha         1 DW7       0.110000
     49 H42         -4.7750     0.2530    15.0800 ha         1 DW7       0.111500
     50 H43         -2.7780     0.9940    13.8010 ha         1 DW7       0.117000
     51 H4          -2.6240     6.0490     3.0130 h1         1 DW7       0.048200
     52 H5          -2.4240     4.5180     3.9110 h1         1 DW7       0.048200
     53 H8           0.0380     4.6110     3.5380 hc         1 DW7       0.069200
     54 H9          -0.1400     6.0670     2.5650 hc         1 DW7       0.069200
     55 H6           0.6590     6.6620     4.8060 h1         1 DW7       0.074200
     56 H7          -0.9490     7.3460     4.5310 h1         1 DW7       0.074200
     57 H14         -2.4480     7.1330     6.5690 h4         1 DW7       0.172000
     58 H15         -2.2260     5.1510     9.8600 hc         1 DW7       0.073200
     59 H16         -3.2960     6.2670     9.0520 hc         1 DW7       0.073200
     60 H19         -4.6360     4.3840     9.6760 h1         1 DW7       0.078700
     61 H36         -3.2870     2.2160     8.2870 hn         1 DW7       0.349500
     62 H31         -7.0860     5.5160     3.7300 hn         1 DW7       0.311500
     63 H3          -4.6580     6.7310     2.4280 h1         1 DW7       0.093700
     64 H32         -5.3670     5.3570     0.4070 hc         1 DW7       0.060200
     65 H33         -6.5930     4.6050     1.4030 hc         1 DW7       0.060200
     66 H12         -5.0070     2.9970     1.6530 hc         1 DW7       0.070700
     67 H13         -4.4340     4.0260     2.9820 hc         1 DW7       0.070700
     68 H17         -7.5670     7.0430     1.5480 h1         1 DW7       0.029700
     69 H18         -6.1450     7.6750     0.7020 h1         1 DW7       0.029700
     70 H35         -7.1640     9.2600     2.0620 ho         1 DW7       0.445000
     71 H20         -5.2080     6.2000     7.9100 hn         1 DW7       0.327500
     72 H21         -6.7120     4.6860     5.8380 h1         1 DW7       0.074700
     73 H22         -6.9960     7.6090     6.6710 hc         1 DW7       0.061200
     74 H23         -8.1010     6.7150     5.6530 hc         1 DW7       0.061200
     75 H24         -7.5620     6.1690     8.6200 hc         1 DW7       0.044700
     76 H2         -10.0030     7.4150     7.2270 hc         1 DW7       0.039700
     77 H1          -8.8470     8.2640     8.2480 hc         1 DW7       0.039700
     78 H11        -10.9350     7.6840     9.5140 hc         1 DW7       0.041700
     79 H10         -9.5180     6.9240    10.2300 hc         1 DW7       0.041700
     80 H30        -11.3730     5.2720    10.0990 hc         1 DW7       0.039700
     81 H29        -11.5710     5.5670     8.3740 hc         1 DW7       0.039700
     82 H28         -9.1050     4.3200     9.7380 hc         1 DW7       0.041700
     83 H27        -10.2660     3.4780     8.7170 hc         1 DW7       0.041700
     84 H25         -9.5770     4.8020     6.7310 hc         1 DW7       0.039700
     85 H26         -8.1730     4.0360     7.4670 hc         1 DW7       0.039700
     86 H34         -1.2380     4.3300     1.2960 hn         1 DW7       0.316500
@<TRIPOS>BOND
     1     1     2 2   
     2     1     3 1   
     3     1    20 1   
     4     3     4 1   
     5     4     5 1   
     6     4    44 1   
     7     4    45 1   
     8     5     6 ar  
     9     5    10 ar  
    10     6     7 ar  
    11     6    46 1   
    12     7     8 ar  
    13     7    47 1   
    14     8     9 ar  
    15     8    48 1   
    16     9    10 ar  
    17     9    49 1   
    18    10    50 1   
    19    11    12 1   
    20    11    29 1   
    21    11    86 1   
    22    12    13 1   
    23    12    51 1   
    24    12    52 1   
    25    13    14 1   
    26    13    53 1   
    27    13    54 1   
    28    14    15 1   
    29    14    55 1   
    30    14    56 1   
    31    15    16 1   
    32    15    24 1   
    33    16    17 2   
    34    16    57 1   
    35    17    18 1   
    36    17    23 1   
    37    18    19 1   
    38    18    58 1   
    39    18    59 1   
    40    19    20 1   
    41    19    21 1   
    42    19    60 1   
    43    20    61 1   
    44    21    22 2   
    45    21    33 1   
    46    23    24 2   
    47    25    26 1   
    48    25    35 1   
    49    25    62 1   
    50    26    27 1   
    51    26    31 1   
    52    26    63 1   
    53    27    28 1   
    54    27    64 1   
    55    27    65 1   
    56    28    29 1   
    57    28    66 1   
    58    28    67 1   
    59    29    30 2   
    60    31    32 1   
    61    31    68 1   
    62    31    69 1   
    63    32    70 1   
    64    33    34 1   
    65    33    71 1   
    66    34    35 1   
    67    34    37 1   
    68    34    72 1   
    69    35    36 2   
    70    37    38 1   
    71    37    73 1   
    72    37    74 1   
    73    38    39 1   
    74    38    43 1   
    75    38    75 1   
    76    39    40 1   
    77    39    76 1   
    78    39    77 1   
    79    40    41 1   
    80    40    78 1   
    81    40    79 1   
    82    41    42 1   
    83    41    80 1   
    84    41    81 1   
    85    42    43 1   
    86    42    82 1   
    87    42    83 1   
    88    43    84 1   
    89    43    85 1   
@<TRIPOS>SUBSTRUCTURE
     1 DW7         1 TEMP              0 ****  ****    0 ROOT
