@<TRIPOS>MOLECULE
DW7
   86    89     1     0     0
SMALL
abcg2


@<TRIPOS>ATOM
      1 C34         -3.0740     2.6220     9.9110 c          1 DW7       0.645100
      2 O43         -3.0330     3.2300    10.9690 o          1 DW7      -0.546000
      3 O35         -2.6690     1.3390     9.7570 os         1 DW7      -0.450100
      4 C36         -2.2580     0.6520    10.9550 c3         1 DW7       0.228900
      5 C37         -3.4210     0.2400    11.8200 ca         1 DW7      -0.115300
      6 C38         -4.6210    -0.1920    11.2570 ca         1 DW7      -0.090000
      7 C39         -5.6740    -0.5960    12.0690 ca         1 DW7      -0.113500
      8 C40         -5.5360    -0.5830    13.4540 ca         1 DW7      -0.106000
      9 C41         -4.3390    -0.1570    14.0220 ca         1 DW7      -0.113500
     10 C42         -3.2910     0.2570    13.2080 ca         1 DW7      -0.090000
     11 N18         -1.8920     4.3500     1.9590 ns         1 DW7      -0.512900
     12 C19         -1.3320     4.9590     3.1580 c3         1 DW7       0.104000
     13 C20         -0.0250     4.2910     3.5530 c3         1 DW7      -0.113400
     14 C21          0.6390     4.9780     4.7430 c3         1 DW7       0.087600
     15 N30         -0.1320     4.8570     5.9770 na         1 DW7       0.107800
     16 C29         -1.1610     5.6120     6.4190 cc         1 DW7      -0.190000
     17 C28         -1.5370     5.0400     7.6130 cd         1 DW7       0.200300
     18 C27         -2.6030     5.4380     8.5740 c3         1 DW7      -0.111700
     19 C26         -3.8530     4.5180     8.5800 c3         1 DW7       0.059700
     20 N33         -3.5340     3.1180     8.7470 ns         1 DW7      -0.480900
     21 C02         -4.6670     4.6430     7.2910 c          1 DW7       0.592100
     22 O01         -4.4970     3.8760     6.3440 o          1 DW7      -0.611100
     23 N32         -0.7150     3.9740     7.8320 nd         1 DW7      -0.352000
     24 N31          0.1260     3.8650     6.8390 nc         1 DW7      -0.204800
     25 N13         -6.4300     6.2050     3.8290 ns         1 DW7      -0.495900
     26 C14         -6.1270     6.8260     2.5450 c3         1 DW7       0.103700
     27 C15         -5.3190     5.8800     1.6510 c3         1 DW7      -0.075400
     28 C16         -3.9780     5.5420     2.2770 c3         1 DW7      -0.157400
     29 C17         -3.1150     4.6140     1.4500 c          1 DW7       0.604100
     30 O22         -3.4910     4.1220     0.3820 o          1 DW7      -0.614100
     31 C23         -7.4140     7.2640     1.8640 c3         1 DW7       0.147600
     32 O24         -8.0260     8.2840     2.6510 oh         1 DW7      -0.662000
     33 N03         -5.5680     5.6360     7.2840 ns         1 DW7      -0.481900
     34 C04         -6.5160     5.8310     6.2080 c3         1 DW7       0.040700
     35 C12         -5.8910     6.5560     5.0090 c          1 DW7       0.596100
     36 O25         -5.0160     7.4090     5.1470 o          1 DW7      -0.610100
     37 C05         -7.7210     6.6390     6.7080 c3         1 DW7      -0.087400
     38 C06         -8.5070     5.9960     7.8540 c6         1 DW7      -0.062700
     39 C11         -9.6090     6.9510     8.3290 c6         1 DW7      -0.072900
     40 C10        -10.4280     6.3590     9.4770 c6         1 DW7      -0.073400
     41 C09        -11.0160     4.9990     9.0970 c6         1 DW7      -0.075400
     42 C08         -9.9240     4.0380     8.6240 c6         1 DW7      -0.073400
     43 C07         -9.1040     4.6350     7.4780 c6         1 DW7      -0.072900
     44 H37         -1.7240    -0.2220    10.5810 h1         1 DW7       0.070700
     45 H38         -1.5640     1.2750    11.5170 h1         1 DW7       0.070700
     46 H39         -4.7340    -0.2030    10.1800 ha         1 DW7       0.117000
     47 H40         -6.6040    -0.9240    11.6200 ha         1 DW7       0.111500
     48 H41         -6.3570    -0.8990    14.0860 ha         1 DW7       0.110000
     49 H42         -4.2250    -0.1370    15.0990 ha         1 DW7       0.111500
     50 H43         -2.3650     0.6040    13.6530 ha         1 DW7       0.117000
     51 H4          -1.1580     6.0290     2.9980 h1         1 DW7       0.048200
     52 H5          -2.0520     4.8650     3.9710 h1         1 DW7       0.048200
     53 H8          -0.1930     3.2360     3.7820 hc         1 DW7       0.069200
     54 H9           0.6790     4.3380     2.7170 hc         1 DW7       0.069200
     55 H6           1.6110     4.5330     4.9430 h1         1 DW7       0.074200
     56 H7           0.7800     6.0410     4.5470 h1         1 DW7       0.074200
     57 H14         -1.5260     6.4710     5.8820 h4         1 DW7       0.172000
     58 H15         -2.1960     5.4230     9.5850 hc         1 DW7       0.073200
     59 H16         -2.9270     6.4590     8.3680 hc         1 DW7       0.073200
     60 H19         -4.4770     4.8330     9.4170 h1         1 DW7       0.078700
     61 H36         -3.4230     2.5730     7.9050 hn         1 DW7       0.349500
     62 H31         -7.1170     5.4650     3.8270 hn         1 DW7       0.311500
     63 H3          -5.5320     7.7130     2.7650 h1         1 DW7       0.093700
     64 H32         -5.1680     6.3580     0.6810 hc         1 DW7       0.060200
     65 H33         -5.8940     4.9680     1.4720 hc         1 DW7       0.060200
     66 H12         -4.1250     5.0820     3.2580 hc         1 DW7       0.070700
     67 H13         -3.4130     6.4600     2.4650 hc         1 DW7       0.070700
     68 H17         -8.0840     6.4030     1.7550 h1         1 DW7       0.029700
     69 H18         -7.1740     7.6390     0.8640 h1         1 DW7       0.029700
     70 H35         -8.8940     8.4770     2.2790 ho         1 DW7       0.445000
     71 H20         -5.6380     6.2290     8.0960 hn         1 DW7       0.327500
     72 H21         -6.8420     4.8450     5.8760 h1         1 DW7       0.074700
     73 H22         -7.3650     7.6260     7.0210 hc         1 DW7       0.061200
     74 H23         -8.3910     6.7980     5.8590 hc         1 DW7       0.061200
     75 H24         -7.8290     5.8370     8.7010 hc         1 DW7       0.044700
     76 H2         -10.2750     7.1680     7.4850 hc         1 DW7       0.039700
     77 H1          -9.1620     7.9020     8.6330 hc         1 DW7       0.039700
     78 H11        -11.2230     7.0510     9.7650 hc         1 DW7       0.041700
     79 H10         -9.7810     6.2380    10.3540 hc         1 DW7       0.041700
     80 H30        -11.5570     4.5690     9.9440 hc         1 DW7       0.039700
     81 H29        -11.7470     5.1360     8.2920 hc         1 DW7       0.039700
     82 H28         -9.2540     3.8160     9.4620 hc         1 DW7       0.041700
     83 H27        -10.3640     3.0870     8.3110 hc         1 DW7       0.041700
     84 H25         -9.7450     4.7640     6.5960 hc         1 DW7       0.039700
     85 H26         -8.3130     3.9370     7.1930 hc         1 DW7       0.039700
     86 H34         -1.2860     3.7820     1.3850 hn         1 DW7       0.316500
@<TRIPOS>BOND
     1     1     2 2   
     2     1     3 1   
     3     1    20 1   
     4     3     4 1   
     5     4     5 1   
     6     4    44 1   
     7     4    45 1   
     8     5     6 ar  
     9     5    10 ar  
    10     6     7 ar  
    11     6    46 1   
    12     7     8 ar  
    13     7    47 1   
    14     8     9 ar  
    15     8    48 1   
    16     9    10 ar  
    17     9    49 1   
    18    10    50 1   
    19    11    12 1   
    20    11    29 1   
    21    11    86 1   
    22    12    13 1   
    23    12    51 1   
    24    12    52 1   
    25    13    14 1   
    26    13    53 1   
    27    13    54 1   
    28    14    15 1   
    29    14    55 1   
    30    14    56 1   
    31    15    16 1   
    32    15    24 1   
    33    16    17 2   
    34    16    57 1   
    35    17    18 1   
    36    17    23 1   
    37    18    19 1   
    38    18    58 1   
    39    18    59 1   
    40    19    20 1   
    41    19    21 1   
    42    19    60 1   
    43    20    61 1   
    44    21    22 2   
    45    21    33 1   
    46    23    24 2   
    47    25    26 1   
    48    25    35 1   
    49    25    62 1   
    50    26    27 1   
    51    26    31 1   
    52    26    63 1   
    53    27    28 1   
    54    27    64 1   
    55    27    65 1   
    56    28    29 1   
    57    28    66 1   
    58    28    67 1   
    59    29    30 2   
    60    31    32 1   
    61    31    68 1   
    62    31    69 1   
    63    32    70 1   
    64    33    34 1   
    65    33    71 1   
    66    34    35 1   
    67    34    37 1   
    68    34    72 1   
    69    35    36 2   
    70    37    38 1   
    71    37    73 1   
    72    37    74 1   
    73    38    39 1   
    74    38    43 1   
    75    38    75 1   
    76    39    40 1   
    77    39    76 1   
    78    39    77 1   
    79    40    41 1   
    80    40    78 1   
    81    40    79 1   
    82    41    42 1   
    83    41    80 1   
    84    41    81 1   
    85    42    43 1   
    86    42    82 1   
    87    42    83 1   
    88    43    84 1   
    89    43    85 1   
@<TRIPOS>SUBSTRUCTURE
     1 DW7         1 TEMP              0 ****  ****    0 ROOT
