@<TRIPOS>MOLECULE
DW8
   77    78     1     0     0
SMALL
No Charge or Current Charge


@<TRIPOS>ATOM
      1 OAF          9.3530     0.2120    -2.9740 o          1 DW8      -0.917833
      2 PBO          9.7030    -1.2360    -3.0630 p5         1 DW8       1.157000
      3 OAG          8.4810    -2.0150    -3.4200 o          1 DW8      -0.917833
      4 OAE         10.7420    -1.4330    -4.1160 o          1 DW8      -0.917833
      5 CBN         10.3400    -1.8130    -1.4330 ca         1 DW8      -0.097500
      6 CAN         11.6480    -2.3400    -1.3590 ca         1 DW8      -0.061000
      7 CAI         12.1710    -2.7900    -0.1350 ca         1 DW8      -0.186000
      8 CAH         11.3950    -2.7180     1.0280 ca         1 DW8      -0.140000
      9 CAM         10.0940    -2.1970     0.9690 ca         1 DW8      -0.255000
     10 CBM          9.5550    -1.7390    -0.2600 ca         1 DW8       0.156100
     11 OBG          8.2730    -1.2230    -0.3300 os         1 DW8      -0.248100
     12 CAZ          7.4170    -1.1170     0.8300 c3         1 DW8       0.105600
     13 CBI          6.0380    -0.5100     0.4920 c          1 DW8       0.586100
     14 OAC          5.7190    -0.1620    -0.6390 o          1 DW8      -0.461100
     15 NBC          5.2070    -0.3970     1.6010 ns         1 DW8      -0.168000
     16 CBK          3.8790     0.0890     1.7610 ca         1 DW8       0.013000
     17 CAO          3.0730     0.5520     0.6960 ca         1 DW8      -0.084000
     18 CAK          3.3550     0.0960     3.0640 ca         1 DW8      -0.179000
     19 CAJ          2.0540     0.5590     3.3080 ca         1 DW8      -0.098000
     20 CAL          1.2580     1.0190     2.2490 ca         1 DW8      -0.153000
     21 CBL          1.7580     1.0230     0.9240 ca         1 DW8      -0.123600
     22 CBJ          0.9280     1.5100    -0.2510 c          1 DW8       0.608700
     23 OAD          1.3570     1.5130    -1.3970 o          1 DW8      -0.582100
     24 NBB         -0.3420     1.9600     0.0360 ns         1 DW8      -0.504900
     25 CAR         -1.3240     2.3970    -0.9670 c3         1 DW8       0.108000
     26 CAS         -1.9570     1.2240    -1.7510 c3         1 DW8       0.128600
     27 OBD         -2.6500     0.3740    -0.8180 os         1 DW8      -0.452000
     28 CAT         -3.2790    -0.7790    -1.4140 c3         1 DW8       0.165600
     29 CAU         -3.9830    -1.6000    -0.3070 c3         1 DW8       0.159600
     30 OBE         -5.1530    -0.8860     0.1380 os         1 DW8      -0.433000
     31 CAV         -5.8930    -1.5470     1.1840 c3         1 DW8       0.162600
     32 CAW         -7.1220    -0.6840     1.5570 c3         1 DW8       0.163600
     33 OBF         -8.0910    -0.7570     0.4900 os         1 DW8      -0.454000
     34 CAX         -9.2810     0.0140     0.7130 c3         1 DW8       0.170600
     35 CAY        -10.1870    -0.1790    -0.5110 c3         1 DW8      -0.161400
     36 CBH        -11.4850     0.6010    -0.3340 c          1 DW8       0.598100
     37 OAB        -11.5390     1.8180    -0.4370 o          1 DW8      -0.607100
     38 NBA        -12.6000    -0.1680    -0.0810 ns         1 DW8      -0.511900
     39 CAQ        -13.9580     0.3550     0.0830 c3         1 DW8       0.104000
     40 CAP        -14.6260     0.6750    -1.2700 c3         1 DW8      -0.095400
     41 H3          12.2630    -2.4020    -2.2540 ha         1 DW8       0.143000
     42 H4          13.1790    -3.1940    -0.0910 ha         1 DW8       0.064000
     43 H5          11.8000    -3.0670     1.9750 ha         1 DW8       0.053000
     44 H6           9.5200    -2.1560     1.8900 ha         1 DW8       0.058000
     45 H7           7.2450    -2.1080     1.2700 h1         1 DW8       0.016700
     46 H8           7.8840    -0.4810     1.5930 h1         1 DW8       0.016700
     47 H9           5.6230    -0.7230     2.4630 hn         1 DW8       0.138000
     48 H10          3.4520     0.5530    -0.3220 ha         1 DW8       0.184000
     49 H11          3.9590    -0.2580     3.8970 ha         1 DW8       0.103000
     50 H12          1.6600     0.5600     4.3230 ha         1 DW8       0.095000
     51 H13          0.2550     1.3700     2.4770 ha         1 DW8       0.100000
     52 H14         -0.6350     1.9080     1.0030 hn         1 DW8       0.319500
     53 H15         -2.1180     2.9620    -0.4620 h1         1 DW8       0.063700
     54 H16         -0.8310     3.0770    -1.6750 h1         1 DW8       0.063700
     55 H17         -2.6540     1.6260    -2.4980 h1         1 DW8       0.030200
     56 H18         -1.1720     0.6670    -2.2780 h1         1 DW8       0.030200
     57 H19         -4.0140    -0.4790    -2.1730 h1         1 DW8       0.028700
     58 H20         -2.5260    -1.4130    -1.9000 h1         1 DW8       0.028700
     59 H21         -4.2680    -2.5770    -0.7190 h1         1 DW8       0.026200
     60 H22         -3.2850    -1.7700     0.5230 h1         1 DW8       0.026200
     61 H23         -6.2260    -2.5430     0.8640 h1         1 DW8       0.025200
     62 H24         -5.2620    -1.6680     2.0750 h1         1 DW8       0.025200
     63 H25         -7.5550    -1.0700     2.4890 h1         1 DW8       0.031700
     64 H26         -6.8040     0.3520     1.7310 h1         1 DW8       0.031700
     65 H27         -9.8030    -0.3280     1.6170 h1         1 DW8       0.035200
     66 H28         -9.0380     1.0790     0.8320 h1         1 DW8       0.035200
     67 H29         -9.6620     0.2020    -1.3940 hc         1 DW8       0.069200
     68 H30        -10.3960    -1.2480    -0.6270 hc         1 DW8       0.069200
     69 H31        -12.4600    -1.1700    -0.0210 hn         1 DW8       0.311500
     70 H32        -14.5570    -0.3940     0.6180 h1         1 DW8       0.051700
     71 H33        -13.9220     1.2620     0.7020 h1         1 DW8       0.051700
     72 H34        -14.0270     1.4200    -1.8070 hc         1 DW8       0.041200
     73 H35        -14.6410    -0.2310    -1.8880 hc         1 DW8       0.041200
     74 C1         -16.0650     1.2050    -1.1190 c3         1 DW8      -0.087100
     75 H36        -16.0780     2.1300    -0.5310 hc         1 DW8       0.035367
     76 H37        -16.5000     1.4170    -2.1030 hc         1 DW8       0.035367
     77 H38        -16.7000     0.4650    -0.6160 hc         1 DW8       0.035367
@<TRIPOS>BOND
     1     1     2 1   
     2     2     3 1   
     3     2     4 1   
     4     2     5 1   
     5     5     6 ar  
     6     5    10 ar  
     7     6     7 ar  
     8     6    41 1   
     9     7     8 ar  
    10     7    42 1   
    11     8     9 ar  
    12     8    43 1   
    13     9    10 ar  
    14     9    44 1   
    15    10    11 1   
    16    11    12 1   
    17    12    13 1   
    18    12    45 1   
    19    12    46 1   
    20    13    14 2   
    21    13    15 1   
    22    15    16 1   
    23    15    47 1   
    24    16    17 ar  
    25    16    18 ar  
    26    17    21 ar  
    27    17    48 1   
    28    18    19 ar  
    29    18    49 1   
    30    19    20 ar  
    31    19    50 1   
    32    20    21 ar  
    33    20    51 1   
    34    21    22 1   
    35    22    23 2   
    36    22    24 1   
    37    24    25 1   
    38    24    52 1   
    39    25    26 1   
    40    25    53 1   
    41    25    54 1   
    42    26    27 1   
    43    26    55 1   
    44    26    56 1   
    45    27    28 1   
    46    28    29 1   
    47    28    57 1   
    48    28    58 1   
    49    29    30 1   
    50    29    59 1   
    51    29    60 1   
    52    30    31 1   
    53    31    32 1   
    54    31    61 1   
    55    31    62 1   
    56    32    33 1   
    57    32    63 1   
    58    32    64 1   
    59    33    34 1   
    60    34    35 1   
    61    34    65 1   
    62    34    66 1   
    63    35    36 1   
    64    35    67 1   
    65    35    68 1   
    66    36    37 2   
    67    36    38 1   
    68    38    39 1   
    69    38    69 1   
    70    39    40 1   
    71    39    70 1   
    72    39    71 1   
    73    40    72 1   
    74    40    73 1   
    75    40    74 1   
    76    74    75 1   
    77    74    76 1   
    78    74    77 1   
@<TRIPOS>SUBSTRUCTURE
     1 DW8         1 TEMP              0 ****  ****    0 ROOT
