@<TRIPOS>MOLECULE
DW8
   77    78     1     0     0
SMALL
abcg2


@<TRIPOS>ATOM
      1 OAF          8.9380     1.8060    -2.2230 o          1 DW8      -0.917833
      2 PBO          9.8190     0.5710    -2.4000 p5         1 DW8       1.157000
      3 OAG          9.1130    -0.6610    -2.9640 o          1 DW8      -0.917833
      4 OAE         11.1530     0.8740    -3.0960 o          1 DW8      -0.917833
      5 CBN         10.3330     0.0930    -0.6660 ca         1 DW8      -0.097500
      6 CAN         11.6790     0.1140    -0.3150 ca         1 DW8      -0.061000
      7 CAI         12.1340    -0.2170     0.9590 ca         1 DW8      -0.186000
      8 CAH         11.2160    -0.5840     1.9250 ca         1 DW8      -0.140000
      9 CAM          9.8590    -0.6210     1.6170 ca         1 DW8      -0.255000
     10 CBM          9.4250    -0.2850     0.3350 ca         1 DW8       0.156100
     11 OBG          8.1140    -0.3060    -0.0180 os         1 DW8      -0.248100
     12 CAZ          7.1880    -0.7010     0.9430 c3         1 DW8       0.105600
     13 CBI          5.7960    -0.6350     0.3350 c          1 DW8       0.586100
     14 OAC          5.5590    -0.1260    -0.7380 o          1 DW8      -0.461100
     15 NBC          4.8670    -1.1940     1.1560 ns         1 DW8      -0.168000
     16 CBK          3.4800    -1.2590     1.0150 ca         1 DW8       0.013000
     17 CAO          2.7880    -0.8740    -0.1310 ca         1 DW8      -0.084000
     18 CAK          2.7630    -1.7620     2.1050 ca         1 DW8      -0.179000
     19 CAJ          1.3870    -1.8710     2.0530 ca         1 DW8      -0.098000
     20 CAL          0.6930    -1.4690     0.9210 ca         1 DW8      -0.153000
     21 CBL          1.3990    -0.9660    -0.1650 ca         1 DW8      -0.123600
     22 CBJ          0.7030    -0.5670    -1.4300 c          1 DW8       0.608700
     23 OAD          1.2290    -0.7320    -2.5220 o          1 DW8      -0.582100
     24 NBB         -0.5110    -0.0180    -1.2680 ns         1 DW8      -0.504900
     25 CAR         -1.4310     0.2320    -2.3530 c3         1 DW8       0.108000
     26 CAS         -2.3300    -0.9590    -2.6230 c3         1 DW8       0.128600
     27 OBD         -3.0300    -1.2640    -1.4440 os         1 DW8      -0.452000
     28 CAT         -3.8180    -2.4220    -1.5510 c3         1 DW8       0.165600
     29 CAU         -4.4230    -2.7460    -0.2090 c3         1 DW8       0.159600
     30 OBE         -5.3110    -1.7260     0.1710 os         1 DW8      -0.433000
     31 CAV         -5.9230    -1.9710     1.4110 c3         1 DW8       0.162600
     32 CAW         -6.8060    -0.8070     1.7800 c3         1 DW8       0.163600
     33 OBF         -7.8720    -0.7060     0.8700 os         1 DW8      -0.454000
     34 CAX         -8.7020     0.3980     1.1310 c3         1 DW8       0.170600
     35 CAY         -9.7980     0.4290     0.0830 c3         1 DW8      -0.161400
     36 CBH        -10.7110     1.6230     0.2640 c          1 DW8       0.598100
     37 OAB        -10.2840     2.7260     0.5840 o          1 DW8      -0.607100
     38 NBA        -12.0090     1.3950     0.0250 ns         1 DW8      -0.511900
     39 CAQ        -13.0190     2.4330     0.0910 c3         1 DW8       0.104000
     40 CAP        -14.3490     1.9250    -0.4410 c3         1 DW8      -0.095400
     41 H3          12.3900     0.4010    -1.0790 ha         1 DW8       0.143000
     42 H4          13.1930    -0.1880     1.1880 ha         1 DW8       0.064000
     43 H5          11.5390    -0.8490     2.9240 ha         1 DW8       0.053000
     44 H6           9.1660    -0.9140     2.3940 ha         1 DW8       0.058000
     45 H7           7.3730    -1.7220     1.3020 h1         1 DW8       0.016700
     46 H8           7.2010    -0.0470     1.8270 h1         1 DW8       0.016700
     47 H9           5.2160    -1.5780     2.0220 hn         1 DW8       0.138000
     48 H10          3.3110    -0.5000    -0.9960 ha         1 DW8       0.184000
     49 H11          3.2920    -2.0770     2.9960 ha         1 DW8       0.103000
     50 H12          0.8540    -2.2790     2.9010 ha         1 DW8       0.095000
     51 H13         -0.3830    -1.5860     0.8840 ha         1 DW8       0.100000
     52 H14         -0.8630     0.1120    -0.3340 hn         1 DW8       0.319500
     53 H15         -2.0300     1.1060    -2.0970 h1         1 DW8       0.063700
     54 H16         -0.8760     0.4750    -3.2570 h1         1 DW8       0.063700
     55 H17         -3.0160    -0.7170    -3.4470 h1         1 DW8       0.030200
     56 H18         -1.7240    -1.8150    -2.9510 h1         1 DW8       0.030200
     57 H19         -4.6090    -2.2950    -2.3030 h1         1 DW8       0.028700
     58 H20         -3.2130    -3.2830    -1.8670 h1         1 DW8       0.028700
     59 H21         -4.9400    -3.7130    -0.2910 h1         1 DW8       0.026200
     60 H22         -3.6260    -2.8740     0.5370 h1         1 DW8       0.026200
     61 H23         -6.5120    -2.8990     1.3850 h1         1 DW8       0.025200
     62 H24         -5.1750    -2.0920     2.2060 h1         1 DW8       0.025200
     63 H25         -7.1730    -0.9660     2.8040 h1         1 DW8       0.031700
     64 H26         -6.2130     0.1190     1.7940 h1         1 DW8       0.031700
     65 H27         -9.1420     0.3250     2.1370 h1         1 DW8       0.035200
     66 H28         -8.1250     1.3310     1.1030 h1         1 DW8       0.035200
     67 H29         -9.3470     0.5030    -0.9120 hc         1 DW8       0.069200
     68 H30        -10.3660    -0.5030     0.1040 hc         1 DW8       0.069200
     69 H31        -12.3040     0.4600    -0.2010 hn         1 DW8       0.311500
     70 H32        -13.1390     2.7780     1.1220 h1         1 DW8       0.051700
     71 H33        -12.6930     3.2960    -0.4950 h1         1 DW8       0.051700
     72 H34        -14.2180     1.5720    -1.4670 hc         1 DW8       0.041200
     73 H35        -14.6750     1.0630     0.1480 hc         1 DW8       0.041200
     74 C1         -15.4190     3.0060    -0.4020 c3         1 DW8      -0.087100
     75 H36        -15.1250     3.8750    -0.9920 hc         1 DW8       0.035367
     76 H37        -16.3630     2.6380    -0.8040 hc         1 DW8       0.035367
     77 H38        -15.6050     3.3460     0.6180 hc         1 DW8       0.035367
@<TRIPOS>BOND
     1     1     2 1   
     2     2     3 1   
     3     2     4 1   
     4     2     5 1   
     5     5     6 ar  
     6     5    10 ar  
     7     6     7 ar  
     8     6    41 1   
     9     7     8 ar  
    10     7    42 1   
    11     8     9 ar  
    12     8    43 1   
    13     9    10 ar  
    14     9    44 1   
    15    10    11 1   
    16    11    12 1   
    17    12    13 1   
    18    12    45 1   
    19    12    46 1   
    20    13    14 2   
    21    13    15 1   
    22    15    16 1   
    23    15    47 1   
    24    16    17 ar  
    25    16    18 ar  
    26    17    21 ar  
    27    17    48 1   
    28    18    19 ar  
    29    18    49 1   
    30    19    20 ar  
    31    19    50 1   
    32    20    21 ar  
    33    20    51 1   
    34    21    22 1   
    35    22    23 2   
    36    22    24 1   
    37    24    25 1   
    38    24    52 1   
    39    25    26 1   
    40    25    53 1   
    41    25    54 1   
    42    26    27 1   
    43    26    55 1   
    44    26    56 1   
    45    27    28 1   
    46    28    29 1   
    47    28    57 1   
    48    28    58 1   
    49    29    30 1   
    50    29    59 1   
    51    29    60 1   
    52    30    31 1   
    53    31    32 1   
    54    31    61 1   
    55    31    62 1   
    56    32    33 1   
    57    32    63 1   
    58    32    64 1   
    59    33    34 1   
    60    34    35 1   
    61    34    65 1   
    62    34    66 1   
    63    35    36 1   
    64    35    67 1   
    65    35    68 1   
    66    36    37 2   
    67    36    38 1   
    68    38    39 1   
    69    38    69 1   
    70    39    40 1   
    71    39    70 1   
    72    39    71 1   
    73    40    72 1   
    74    40    73 1   
    75    40    74 1   
    76    74    75 1   
    77    74    76 1   
    78    74    77 1   
@<TRIPOS>SUBSTRUCTURE
     1 DW8         1 TEMP              0 ****  ****    0 ROOT
