@<TRIPOS>MOLECULE
DW9
   34    37     1     0     0
SMALL
No Charge or Current Charge


@<TRIPOS>ATOM
      1 C1         -11.7160     6.2760     8.2610 ca         1 DW9       0.108400
      2 C2         -10.3790     6.1500     8.5900 ca         1 DW9      -0.170000
      3 C3          -9.5530     5.1920     7.9830 ca         1 DW9      -0.035500
      4 C4         -10.1050     4.3490     6.9980 ca         1 DW9      -0.106500
      5 C5         -11.4730     4.4530     6.6630 ca         1 DW9      -0.123500
      6 C6         -12.2810     5.4160     7.2960 ca         1 DW9       0.154600
      7 C8         -11.5620     7.8870     9.7160 cc         1 DW9       0.637600
      8 C14         -8.2240     6.0810     5.2480 ca         1 DW9      -0.106500
      9 C15         -7.1710     6.7150     5.9400 ca         1 DW9      -0.123500
     10 C16         -7.3430     8.0130     6.4690 ca         1 DW9       0.154600
     11 C17         -8.5910     8.6680     6.3030 ca         1 DW9       0.108400
     12 C18         -9.6060     8.0310     5.6060 ca         1 DW9      -0.170000
     13 C19         -9.4480     6.7490     5.0620 ca         1 DW9      -0.035500
     14 C21        -10.1560    10.1840     6.4650 cc         1 DW9       0.637600
     15 N7         -12.4270     7.2830     8.9170 nd         1 DW9      -0.626100
     16 N10        -12.0320     8.8990    10.4630 nv         1 DW9      -1.022700
     17 N20         -8.9030     9.9380     6.8050 nd         1 DW9      -0.626100
     18 N24        -10.6740    11.3600     6.8560 nv         1 DW9      -1.022700
     19 O11        -13.6010     5.5410     6.9690 oh         1 DW9      -0.519100
     20 O23         -6.3140     8.6110     7.1510 oh         1 DW9      -0.519100
     21 S9          -9.8750     7.3330     9.7850 ss         1 DW9      -0.014200
     22 S12         -9.0520     3.2150     6.1020 ss         1 DW9      -0.025500
     23 S13         -8.0360     4.3930     4.6890 ss         1 DW9      -0.025500
     24 S22        -11.0780     8.9850     5.5350 ss         1 DW9      -0.014200
     25 H1          -8.4970     5.1300     8.2380 ha         1 DW9       0.142000
     26 H2         -11.9000     3.8090     5.8990 ha         1 DW9       0.140500
     27 H3          -6.2310     6.1870     6.0820 ha         1 DW9       0.140500
     28 H4         -10.2710     6.2630     4.5420 ha         1 DW9       0.142000
     29 H5         -13.0410     8.9470    10.5330 hn         1 DW9       0.493000
     30 H6         -11.5110     9.1450    11.2970 hn         1 DW9       0.493000
     31 H7         -11.6840    11.4230     6.9100 hn         1 DW9       0.493000
     32 H8         -10.1550    11.8470     7.5770 hn         1 DW9       0.493000
     33 H9         -13.9440     6.2760     7.5250 ho         1 DW9       0.474000
     34 H10         -5.5420     8.0080     7.1480 ho         1 DW9       0.474000
@<TRIPOS>BOND
     1     1     2 ar  
     2     1     6 ar  
     3     1    15 1   
     4     2     3 ar  
     5     2    21 1   
     6     3     4 ar  
     7     3    25 1   
     8     4     5 ar  
     9     4    22 1   
    10     5     6 ar  
    11     5    26 1   
    12     6    19 1   
    13     7    15 2   
    14     7    16 1   
    15     7    21 1   
    16     8     9 ar  
    17     8    13 ar  
    18     8    23 1   
    19     9    10 ar  
    20     9    27 1   
    21    10    11 ar  
    22    10    20 1   
    23    11    12 ar  
    24    11    17 1   
    25    12    13 ar  
    26    12    24 1   
    27    13    28 1   
    28    14    17 2   
    29    14    18 1   
    30    14    24 1   
    31    16    29 1   
    32    16    30 1   
    33    18    31 1   
    34    18    32 1   
    35    19    33 1   
    36    20    34 1   
    37    22    23 1   
@<TRIPOS>SUBSTRUCTURE
     1 DW9         1 TEMP              0 ****  ****    0 ROOT
