@<TRIPOS>MOLECULE
DW9
   34    37     1     0     0
SMALL
abcg2


@<TRIPOS>ATOM
      1 C1         -11.8090     6.1310     8.2360 ca         1 DW9       0.108400
      2 C2         -10.4510     6.2570     8.5690 ca         1 DW9      -0.170000
      3 C3          -9.4850     5.4000     8.0640 ca         1 DW9      -0.035500
      4 C4          -9.9060     4.3880     7.2010 ca         1 DW9      -0.106500
      5 C5         -11.2610     4.2260     6.8730 ca         1 DW9      -0.123500
      6 C6         -12.2130     5.0920     7.3860 ca         1 DW9       0.154600
      7 C8         -12.0000     7.9490     9.4710 cc         1 DW9       0.637600
      8 C14         -8.4550     6.1340     5.0870 ca         1 DW9      -0.106500
      9 C15         -7.2600     6.6690     5.5930 ca         1 DW9      -0.123500
     10 C16         -7.2380     7.9190     6.1920 ca         1 DW9       0.154600
     11 C17         -8.4310     8.6550     6.2960 ca         1 DW9       0.108400
     12 C18         -9.6070     8.1040     5.7530 ca         1 DW9      -0.170000
     13 C19         -9.6440     6.8570     5.1500 ca         1 DW9      -0.035500
     14 C21         -9.8100    10.2700     6.8980 cc         1 DW9       0.637600
     15 N7         -12.6620     7.0790     8.7580 nd         1 DW9      -0.626100
     16 N10        -12.5480     9.0310    10.0550 nv         1 DW9      -1.022700
     17 N20         -8.5690     9.8740     6.9250 nd         1 DW9      -0.626100
     18 N24        -10.2510    11.4340     7.4190 nv         1 DW9      -1.022700
     19 O11        -13.5230     4.9470     7.0480 oh         1 DW9      -0.519100
     20 O23         -6.1080     8.4720     6.7150 oh         1 DW9      -0.519100
     21 S9         -10.2540     7.6660     9.5860 ss         1 DW9      -0.014200
     22 S12         -8.6560     3.4300     6.3940 ss         1 DW9      -0.025500
     23 S13         -8.5370     4.4610     4.5190 ss         1 DW9      -0.025500
     24 S22        -10.9400     9.1880     6.0690 ss         1 DW9      -0.014200
     25 H1          -8.4360     5.5370     8.2790 ha         1 DW9       0.142000
     26 H2         -11.5660     3.4480     6.1860 ha         1 DW9       0.140500
     27 H3          -6.3490     6.0850     5.5510 ha         1 DW9       0.140500
     28 H4         -10.5680     6.4280     4.7930 ha         1 DW9       0.142000
     29 H5         -13.5540     9.0780    10.1040 hn         1 DW9       0.493000
     30 H6         -12.0330     9.5400    10.7540 hn         1 DW9       0.493000
     31 H7         -11.2360    11.5690     7.5780 hn         1 DW9       0.493000
     32 H8          -9.6240    11.9280     8.0360 hn         1 DW9       0.493000
     33 H9         -14.0300     5.6490     7.4840 ho         1 DW9       0.474000
     34 H10         -5.3640     7.8650     6.6010 ho         1 DW9       0.474000
@<TRIPOS>BOND
     1     1     2 ar  
     2     1     6 ar  
     3     1    15 1   
     4     2     3 ar  
     5     2    21 1   
     6     3     4 ar  
     7     3    25 1   
     8     4     5 ar  
     9     4    22 1   
    10     5     6 ar  
    11     5    26 1   
    12     6    19 1   
    13     7    15 2   
    14     7    16 1   
    15     7    21 1   
    16     8     9 ar  
    17     8    13 ar  
    18     8    23 1   
    19     9    10 ar  
    20     9    27 1   
    21    10    11 ar  
    22    10    20 1   
    23    11    12 ar  
    24    11    17 1   
    25    12    13 ar  
    26    12    24 1   
    27    13    28 1   
    28    14    17 2   
    29    14    18 1   
    30    14    24 1   
    31    16    29 1   
    32    16    30 1   
    33    18    31 1   
    34    18    32 1   
    35    19    33 1   
    36    20    34 1   
    37    22    23 1   
@<TRIPOS>SUBSTRUCTURE
     1 DW9         1 TEMP              0 ****  ****    0 ROOT
