@<TRIPOS>MOLECULE
DWA
   45    48     1     0     0
SMALL
bcc


@<TRIPOS>ATOM
      1 C15          5.1110     3.2960     1.7500 c3         1 DWA       0.125700
      2 O14          4.7840     2.8580     0.4470 os         1 DWA      -0.318900
      3 C2           3.9010     1.8490     0.3130 ca         1 DWA       0.142100
      4 C3           3.6330     1.4290    -0.9920 ca         1 DWA      -0.192500
      5 C4           2.7390     0.4020    -1.2220 ca         1 DWA      -0.074500
      6 C1           3.2560     1.2170     1.3700 ca         1 DWA      -0.192500
      7 C6           2.3600     0.1810     1.1170 ca         1 DWA      -0.074500
      8 C5           2.0870    -0.2480    -0.1720 ca         1 DWA      -0.121300
      9 C7           1.0880    -1.3740    -0.4470 c5         1 DWA       0.227800
     10 C19          1.7280    -2.5180    -1.2730 c5         1 DWA       0.107400
     11 O18          2.0860    -3.4750    -0.2760 os         1 DWA      -0.440400
     12 C17          1.3580    -3.1490     0.8070 c2         1 DWA       0.795500
     13 N16          0.7190    -2.0450     0.7870 n2         1 DWA      -0.729900
     14 N20          1.4370    -4.0180     1.8310 nv         1 DWA      -0.905800
     15 C8          -0.1300    -0.7670    -1.1230 ca         1 DWA      -0.062300
     16 C13         -1.1740    -0.2810    -0.3440 ca         1 DWA      -0.067000
     17 C9          -0.2040    -0.6310    -2.5060 ca         1 DWA      -0.123000
     18 C10         -1.3000    -0.0180    -3.0960 ca         1 DWA      -0.133000
     19 C11         -2.3330     0.4690    -2.3120 ca         1 DWA      -0.112000
     20 C12         -2.2770     0.3410    -0.9250 cp         1 DWA      -0.042000
     21 C21         -3.3650     0.9000    -0.1010 cp         1 DWA      -0.175300
     22 C26         -3.8420     2.1910    -0.3010 ca         1 DWA      -0.067000
     23 C25         -4.8750     2.6880     0.4820 ca         1 DWA      -0.266300
     24 C24         -5.4100     1.8670     1.4570 ca         1 DWA       0.433200
     25 N23         -4.9760     0.6240     1.6610 nb         1 DWA      -0.706000
     26 C22         -4.0080     0.1890     0.9100 ca         1 DWA       0.646500
     27 F27         -3.6290    -1.0710     1.1450 f          1 DWA      -0.222200
     28 H1           5.8400     4.0940     1.6360 h1         1 DWA       0.040033
     29 H2           4.2400     3.6900     2.2810 h1         1 DWA       0.040033
     30 H3           5.5540     2.4970     2.3510 h1         1 DWA       0.040033
     31 H4           4.1310     1.9120    -1.8230 ha         1 DWA       0.139000
     32 H5           2.5540     0.1070    -2.2480 ha         1 DWA       0.137500
     33 H6           3.4320     1.5110     2.3960 ha         1 DWA       0.139000
     34 H7           1.8710    -0.2990     1.9530 ha         1 DWA       0.137500
     35 H8           1.0130    -2.9780    -1.9610 h1         1 DWA       0.069200
     36 H9           2.6230    -2.2350    -1.8250 h1         1 DWA       0.069200
     37 H10          0.7990    -3.8690     2.5950 hn         1 DWA       0.434300
     38 H11          1.6380    -4.9830     1.6250 hn         1 DWA       0.434300
     39 H12         -1.1070    -0.3760     0.7320 ha         1 DWA       0.161000
     40 H13          0.5900    -1.0030    -3.1430 ha         1 DWA       0.125000
     41 H14         -1.3510     0.0740    -4.1730 ha         1 DWA       0.132000
     42 H15         -3.1920     0.9340    -2.7800 ha         1 DWA       0.131000
     43 H16         -3.3920     2.8130    -1.0640 ha         1 DWA       0.144000
     44 H17         -5.2480     3.6920     0.3430 ha         1 DWA       0.148000
     45 H18         -6.2130     2.2110     2.0970 h4         1 DWA       0.026100
@<TRIPOS>BOND
     1     1     2 1   
     2     1    28 1   
     3     1    29 1   
     4     1    30 1   
     5     2     3 1   
     6     3     4 ar  
     7     3     6 ar  
     8     4     5 ar  
     9     4    31 1   
    10     5     8 ar  
    11     5    32 1   
    12     6     7 ar  
    13     6    33 1   
    14     7     8 ar  
    15     7    34 1   
    16     8     9 1   
    17     9    10 1   
    18     9    13 1   
    19     9    15 1   
    20    10    11 1   
    21    10    35 1   
    22    10    36 1   
    23    11    12 1   
    24    12    13 2   
    25    12    14 1   
    26    14    37 1   
    27    14    38 1   
    28    15    16 ar  
    29    15    17 ar  
    30    16    20 ar  
    31    16    39 1   
    32    17    18 ar  
    33    17    40 1   
    34    18    19 ar  
    35    18    41 1   
    36    19    20 ar  
    37    19    42 1   
    38    20    21 1   
    39    21    22 ar  
    40    21    26 ar  
    41    22    23 ar  
    42    22    43 1   
    43    23    24 ar  
    44    23    44 1   
    45    24    25 ar  
    46    24    45 1   
    47    25    26 ar  
    48    26    27 1   
@<TRIPOS>SUBSTRUCTURE
     1 DWA         1 TEMP              0 ****  ****    0 ROOT
