@<TRIPOS>MOLECULE
DWA
   45    48     1     0     0
SMALL
No Charge or Current Charge


@<TRIPOS>ATOM
      1 C15          5.4310     3.2700     1.8040 c3         1 DWA       0.148900
      2 O14          4.9690     2.8420     0.5100 os         1 DWA      -0.342100
      3 C2           4.0330     1.8400     0.3570 ca         1 DWA       0.142100
      4 C3           3.6440     1.4960    -0.9440 ca         1 DWA      -0.174500
      5 C4           2.6940     0.4840    -1.1620 ca         1 DWA      -0.056500
      6 C1           3.4550     1.1640     1.4500 ca         1 DWA      -0.174500
      7 C6           2.5040     0.1500     1.2320 ca         1 DWA      -0.056500
      8 C5           2.1150    -0.2180    -0.0790 ca         1 DWA      -0.121300
      9 C7           1.0570    -1.3170    -0.3350 c5         1 DWA       0.227800
     10 C19          1.7380    -2.4230    -1.2140 c5         1 DWA       0.130600
     11 O18          2.2660    -3.3300    -0.2340 os         1 DWA      -0.463600
     12 C17          1.4700    -3.1150     0.8310 c2         1 DWA       0.795500
     13 N16          0.6990    -2.1110     0.8750 n2         1 DWA      -0.729900
     14 N20          1.5230    -4.1090     1.7200 nv         1 DWA      -1.016200
     15 C8          -0.1720    -0.7510    -1.0800 ca         1 DWA      -0.062300
     16 C13         -1.2390    -0.2080    -0.3290 ca         1 DWA      -0.049000
     17 C9          -0.2600    -0.6980    -2.4930 ca         1 DWA      -0.105000
     18 C10         -1.3870    -0.1430    -3.1210 ca         1 DWA      -0.115000
     19 C11         -2.4400     0.3750    -2.3540 ca         1 DWA      -0.094000
     20 C12         -2.3880     0.3510    -0.9420 cp         1 DWA      -0.042000
     21 C21         -3.5070     0.9250    -0.1290 cp         1 DWA      -0.110000
     22 C26         -4.1140     2.1480    -0.5010 ca         1 DWA      -0.049000
     23 C25         -5.1620     2.6570     0.2830 ca         1 DWA      -0.183000
     24 C24         -5.5870     1.9420     1.4140 ca         1 DWA       0.367900
     25 N23         -5.0350     0.7690     1.7910 nb         1 DWA      -0.706000
     26 C22         -4.0250     0.2860     1.0330 ca         1 DWA       0.581200
     27 F27         -3.5470    -0.9060     1.4540 f          1 DWA      -0.222200
     28 H1           6.1710     4.0720     1.6970 h1         1 DWA       0.040033
     29 H2           4.5990     3.6530     2.4080 h1         1 DWA       0.040033
     30 H3           5.9060     2.4390     2.3420 h1         1 DWA       0.040033
     31 H4           4.0800     2.0190    -1.7910 ha         1 DWA       0.121000
     32 H5           2.4080     0.2500    -2.1840 ha         1 DWA       0.119500
     33 H6           3.7260     1.4090     2.4720 ha         1 DWA       0.121000
     34 H7           2.0710    -0.3430     2.0980 ha         1 DWA       0.119500
     35 H8           1.0000    -2.9720    -1.8150 h1         1 DWA       0.069200
     36 H9           2.5380    -2.0650    -1.8750 h1         1 DWA       0.069200
     37 H10          0.6560    -4.1810     2.2350 hn         1 DWA       0.489500
     38 H11          1.8370    -4.9730     1.3000 hn         1 DWA       0.489500
     39 H12         -1.1660    -0.2060     0.7560 ha         1 DWA       0.143000
     40 H13          0.5440    -1.0720    -3.1210 ha         1 DWA       0.107000
     41 H14         -1.4410    -0.1110    -4.2070 ha         1 DWA       0.114000
     42 H15         -3.3070     0.7950    -2.8590 ha         1 DWA       0.113000
     43 H16         -3.7700     2.6970    -1.3750 ha         1 DWA       0.126000
     44 H17         -5.6420     3.5960     0.0240 ha         1 DWA       0.130000
     45 H18         -6.3990     2.3190     2.0350 h4         1 DWA       0.026100
@<TRIPOS>BOND
     1     1     2 1   
     2     1    28 1   
     3     1    29 1   
     4     1    30 1   
     5     2     3 1   
     6     3     4 ar  
     7     3     6 ar  
     8     4     5 ar  
     9     4    31 1   
    10     5     8 ar  
    11     5    32 1   
    12     6     7 ar  
    13     6    33 1   
    14     7     8 ar  
    15     7    34 1   
    16     8     9 1   
    17     9    10 1   
    18     9    13 1   
    19     9    15 1   
    20    10    11 1   
    21    10    35 1   
    22    10    36 1   
    23    11    12 1   
    24    12    13 2   
    25    12    14 1   
    26    14    37 1   
    27    14    38 1   
    28    15    16 ar  
    29    15    17 ar  
    30    16    20 ar  
    31    16    39 1   
    32    17    18 ar  
    33    17    40 1   
    34    18    19 ar  
    35    18    41 1   
    36    19    20 ar  
    37    19    42 1   
    38    20    21 1   
    39    21    22 ar  
    40    21    26 ar  
    41    22    23 ar  
    42    22    43 1   
    43    23    24 ar  
    44    23    44 1   
    45    24    25 ar  
    46    24    45 1   
    47    25    26 ar  
    48    26    27 1   
@<TRIPOS>SUBSTRUCTURE
     1 DWA         1 TEMP              0 ****  ****    0 ROOT
