@<TRIPOS>MOLECULE
DWF
   67    71     1     0     0
SMALL
bcc


@<TRIPOS>ATOM
      1 C4          -1.7410    -2.5720    -0.9230 ca         1 DWF       0.714600
      2 C5          -2.6520    -3.6160    -1.0940 ca         1 DWF      -0.427600
      3 C6          -3.9720    -3.2370    -1.0280 ca         1 DWF       0.494200
      4 N1          -4.3730    -1.9850    -0.8150 nb         1 DWF      -0.773000
      5 N3          -2.0980    -1.3340    -0.7140 nb         1 DWF      -0.844000
      6 CAA        -10.7610    -0.9190     0.9630 c3         1 DWF      -0.231300
      7 SBP         -9.1870    -0.1370     1.2280 s6         1 DWF       0.993000
      8 OAD         -9.3910     1.0710     2.0260 o          1 DWF      -0.581300
      9 OAE         -8.2430    -1.1360     1.7280 o          1 DWF      -0.581300
     10 CBG         -7.3450     1.0370    -0.3450 ca         1 DWF      -0.061300
     11 CAS         -6.1860     0.2710    -0.4330 ca         1 DWF      -0.128000
     12 CAJ         -7.2780     2.4100    -0.1500 ca         1 DWF      -0.129000
     13 CAH         -6.0340     3.0180    -0.0560 ca         1 DWF      -0.097000
     14 CAK         -4.8760     2.2680    -0.1510 ca         1 DWF      -0.175000
     15 CBJ         -4.9360     0.8830    -0.3470 ca         1 DWF       0.181600
     16 C2          -3.4140    -1.0850    -0.6640 ca         1 DWF       0.948900
     17 OBC         -0.4340    -2.8740    -0.9920 os         1 DWF      -0.344400
     18 CBN          0.4850    -1.8720    -0.8060 ca         1 DWF       0.043100
     19 CBK          0.7650    -1.3980     0.4650 ca         1 DWF       0.175900
     20 FAG          0.0800    -1.8880     1.5000 f          1 DWF      -0.122900
     21 CAT          1.7260    -0.4400     0.6810 ca         1 DWF      -0.228000
     22 CAR          1.1970    -1.3630    -1.8730 ca         1 DWF      -0.073000
     23 CAQ          2.1790    -0.3990    -1.6860 ca         1 DWF      -0.162000
     24 CBI          2.4460     0.0720    -0.4020 ca         1 DWF       0.093600
     25 NBA          3.4210     1.0280    -0.1000 ns         1 DWF      -0.480100
     26 CBE          4.1230     1.8300    -0.9450 c          1 DWF       0.701100
     27 OAC          4.0190     1.8130    -2.1540 o          1 DWF      -0.546100
     28 CBO          5.0940     2.7370    -0.2310 cx         1 DWF      -0.341000
     29 CAU          5.0640     4.1840    -0.6320 cx         1 DWF      -0.077400
     30 CAV          4.5360     3.7950     0.6990 cx         1 DWF      -0.077400
     31 CBD          6.4410     2.1850     0.1540 c          1 DWF       0.720100
     32 OAB          7.3260     2.9280     0.5370 o          1 DWF      -0.578100
     33 NAZ          6.5790     0.8410     0.0530 ns         1 DWF      -0.464100
     34 CBH          7.6980     0.0470     0.3370 ca         1 DWF       0.054600
     35 CAO          7.5170    -1.3350     0.2420 ca         1 DWF      -0.140000
     36 CAM          8.5560    -2.2130     0.4920 ca         1 DWF      -0.142000
     37 CBF          9.7900    -1.6990     0.8390 ca         1 DWF       0.111900
     38 FAF         10.8060    -2.5440     1.0840 f          1 DWF      -0.142900
     39 CAN         10.0010    -0.3410     0.9380 ca         1 DWF      -0.142000
     40 CAP          8.9560     0.5390     0.6870 ca         1 DWF      -0.140000
     41 H1          -2.3460    -4.6360    -1.2670 ha         1 DWF       0.170000
     42 H2          -4.7570    -3.9750    -1.1520 h4         1 DWF       0.028100
     43 H3         -11.4510    -0.2040     0.5190 h1         1 DWF       0.102367
     44 H4         -10.6340    -1.7810     0.3120 h1         1 DWF       0.102367
     45 H5         -11.1320    -1.2380     1.9360 h1         1 DWF       0.102367
     46 H6          -8.6430    -0.5510    -1.0350 h1         1 DWF       0.097700
     47 H7          -9.4540     1.0120    -0.8190 h1         1 DWF       0.097700
     48 H8          -6.2590    -0.7940    -0.5790 ha         1 DWF       0.176000
     49 H9          -8.1820     3.0010    -0.0840 ha         1 DWF       0.142000
     50 H10         -5.9610     4.0870     0.0890 ha         1 DWF       0.136000
     51 H11         -3.9130     2.7600    -0.0800 ha         1 DWF       0.131000
     52 H12         -2.9000     0.8060    -0.3420 hn         1 DWF       0.455800
     53 H13          1.9140    -0.0930     1.6900 ha         1 DWF       0.151000
     54 H14          0.9910    -1.7270    -2.8710 ha         1 DWF       0.154000
     55 H15          2.7180    -0.0320    -2.5420 ha         1 DWF       0.173000
     56 H16          3.5420     1.2190     0.8840 hn         1 DWF       0.326500
     57 H17          6.0100     4.7050    -0.6840 hc         1 DWF       0.092950
     58 H18          4.3540     4.4550    -1.4020 hc         1 DWF       0.092950
     59 H19          3.4640     3.8040     0.8490 hc         1 DWF       0.092950
     60 H20          5.1180     4.0290     1.5800 hc         1 DWF       0.092950
     61 H21          5.7620     0.3080    -0.2020 hn         1 DWF       0.323500
     62 H22          6.5500    -1.7370    -0.0350 ha         1 DWF       0.152000
     63 H23          8.4010    -3.2810     0.4140 ha         1 DWF       0.152500
     64 H24         10.9740     0.0440     1.2110 ha         1 DWF       0.152500
     65 H25          9.1380     1.5970     0.7700 ha         1 DWF       0.152000
     66 NBB         -3.7160     0.2210    -0.4390 nu         1 DWF      -0.731300
     67 CAW         -8.6740     0.3560    -0.4300 c3         1 DWF      -0.119300
@<TRIPOS>BOND
     1     1     2 ar  
     2     1     5 ar  
     3     1    17 1   
     4     2     3 ar  
     5     2    41 1   
     6     3     4 ar  
     7     3    42 1   
     8     4    16 ar  
     9     5    16 ar  
    10     6     7 1   
    11     6    43 1   
    12     6    44 1   
    13     6    45 1   
    14     7     8 2   
    15     7     9 2   
    16     7    67 1   
    17    10    11 ar  
    18    10    12 ar  
    19    10    67 1   
    20    11    15 ar  
    21    11    48 1   
    22    12    13 ar  
    23    12    49 1   
    24    13    14 ar  
    25    13    50 1   
    26    14    15 ar  
    27    14    51 1   
    28    15    66 1   
    29    16    66 1   
    30    17    18 1   
    31    18    19 ar  
    32    18    22 ar  
    33    19    20 1   
    34    19    21 ar  
    35    21    24 ar  
    36    21    53 1   
    37    22    23 ar  
    38    22    54 1   
    39    23    24 ar  
    40    23    55 1   
    41    24    25 1   
    42    25    26 1   
    43    25    56 1   
    44    26    27 2   
    45    26    28 1   
    46    28    29 1   
    47    28    30 1   
    48    28    31 1   
    49    29    30 1   
    50    29    57 1   
    51    29    58 1   
    52    30    59 1   
    53    30    60 1   
    54    31    32 2   
    55    31    33 1   
    56    33    34 1   
    57    33    61 1   
    58    34    35 ar  
    59    34    40 ar  
    60    35    36 ar  
    61    35    62 1   
    62    36    37 ar  
    63    36    63 1   
    64    37    38 1   
    65    37    39 ar  
    66    39    40 ar  
    67    39    64 1   
    68    40    65 1   
    69    46    67 1   
    70    47    67 1   
    71    52    66 1   
@<TRIPOS>SUBSTRUCTURE
     1 DWF         1 TEMP              0 ****  ****    0 ROOT
