@<TRIPOS>MOLECULE
DWF
   67    71     1     0     0
SMALL
No Charge or Current Charge


@<TRIPOS>ATOM
      1 C4          -1.8980    -2.3210    -1.4220 ca         1 DWF       0.386300
      2 C5          -2.7710    -3.4160    -1.3830 ca         1 DWF      -0.279000
      3 C6          -4.0720    -3.1980    -0.9090 ca         1 DWF       0.165900
      4 N1          -4.4740    -1.9770    -0.5130 nb         1 DWF      -0.247000
      5 N3          -2.3030    -1.0950    -1.0330 nb         1 DWF      -0.318000
      6 CAA        -11.2070    -1.0690     0.0870 c3         1 DWF      -0.342100
      7 SBP         -9.6300    -0.6900     0.8510 s6         1 DWF       1.073000
      8 OAD         -9.9030    -0.1120     2.1730 o          1 DWF      -0.510500
      9 OAE         -8.7860    -1.8880     0.7460 o          1 DWF      -0.510500
     10 CBG         -7.5490     1.0930     0.2570 ca         1 DWF      -0.061300
     11 CAS         -6.3780     0.4450    -0.1820 ca         1 DWF      -0.110000
     12 CAJ         -7.4460     2.2070     1.1090 ca         1 DWF      -0.111000
     13 CAH         -6.1840     2.6710     1.5140 ca         1 DWF      -0.079000
     14 CAK         -5.0210     2.0170     1.0720 ca         1 DWF      -0.157000
     15 CBJ         -5.1070     0.8930     0.2330 ca         1 DWF       0.320000
     16 C2          -3.5680    -0.9870    -0.6070 ca         1 DWF       0.422900
     17 OBC         -0.6210    -2.5260    -1.8940 os         1 DWF      -0.344400
     18 CBN          0.4160    -1.6540    -1.6310 ca         1 DWF       0.043100
     19 CBK          0.8360    -1.3810    -0.3120 ca         1 DWF       0.211000
     20 FAG          0.2330    -1.9800     0.7420 f          1 DWF      -0.158000
     21 CAT          1.9000    -0.4950    -0.0780 ca         1 DWF      -0.210000
     22 CAR          1.0820    -1.0470    -2.7070 ca         1 DWF      -0.055000
     23 CAQ          2.1480    -0.1570    -2.4710 ca         1 DWF      -0.144000
     24 CBI          2.5630     0.1300    -1.1510 ca         1 DWF       0.001000
     25 NBA          3.6310     1.0130    -0.8360 ns         1 DWF      -0.154000
     26 CBE          4.4430     1.8160    -1.6230 c          1 DWF       0.634100
     27 OAC          4.3530     1.9220    -2.8390 o          1 DWF      -0.546100
     28 CBO          5.4800     2.5730    -0.8480 cx         1 DWF      -0.341000
     29 CAU          5.5250     4.0870    -1.0180 cx         1 DWF      -0.077400
     30 CAV          5.0320     3.4960     0.2820 cx         1 DWF      -0.077400
     31 CBD          6.7880     1.8470    -0.7180 c          1 DWF       0.653100
     32 OAB          7.6720     1.9750    -1.5550 o          1 DWF      -0.578100
     33 NAZ          6.8720     1.0450     0.4120 ns         1 DWF      -0.138000
     34 CBH          7.8940     0.1850     0.9050 ca         1 DWF      -0.038000
     35 CAO          7.6630    -0.4590     2.1370 ca         1 DWF      -0.122000
     36 CAM          8.6270    -1.3240     2.6850 ca         1 DWF      -0.124000
     37 CBF          9.8290    -1.5520     2.0010 ca         1 DWF       0.147000
     38 FAF         10.7550    -2.3830     2.5270 f          1 DWF      -0.178000
     39 CAN         10.0720    -0.9210     0.7730 ca         1 DWF      -0.124000
     40 CAP          9.1100    -0.0540     0.2230 ca         1 DWF      -0.122000
     41 H1          -2.4470    -4.4010    -1.7040 ha         1 DWF       0.152000
     42 H2          -4.8000    -4.0050    -0.8440 h4         1 DWF       0.028100
     43 H3         -11.8070    -0.1520     0.0840 h1         1 DWF       0.102367
     44 H4         -11.0110    -1.4180    -0.9320 h1         1 DWF       0.102367
     45 H5         -11.6850    -1.8510     0.6860 h1         1 DWF       0.102367
     46 H6          -8.8580     0.1750    -1.2070 h1         1 DWF       0.097700
     47 H7          -9.6410     1.4220    -0.2050 h1         1 DWF       0.097700
     48 H8          -6.4620    -0.3970    -0.8600 ha         1 DWF       0.158000
     49 H9          -8.3420     2.7180     1.4550 ha         1 DWF       0.124000
     50 H10         -6.1070     3.5360     2.1690 ha         1 DWF       0.118000
     51 H11         -4.0490     2.3830     1.3930 ha         1 DWF       0.113000
     52 H12         -3.1010     0.8870    -0.0930 hn         1 DWF       0.511000
     53 H13          2.2080    -0.2980     0.9460 ha         1 DWF       0.133000
     54 H14          0.7700    -1.2620    -3.7260 ha         1 DWF       0.136000
     55 H15          2.6370     0.2920    -3.3290 ha         1 DWF       0.155000
     56 H16          3.8330     1.0700     0.1530 hn         1 DWF       0.160000
     57 H17          6.4950     4.5800    -1.0110 hc         1 DWF       0.092950
     58 H18          4.7900     4.5560    -1.6690 hc         1 DWF       0.092950
     59 H19          3.9680     3.5830     0.4970 hc         1 DWF       0.092950
     60 H20          5.6740     3.6060     1.1540 hc         1 DWF       0.092950
     61 H21          6.0520     1.0810     1.0010 hn         1 DWF       0.157000
     62 H22          6.7330    -0.2880     2.6760 ha         1 DWF       0.134000
     63 H23          8.4430    -1.8170     3.6370 ha         1 DWF       0.134500
     64 H24         11.0070    -1.1040     0.2480 ha         1 DWF       0.134500
     65 H25          9.3280     0.4150    -0.7310 ha         1 DWF       0.134000
     66 NBB         -3.9180     0.2860    -0.1870 nu         1 DWF      -0.924900
     67 CAW         -8.9170     0.6000    -0.1980 c3         1 DWF      -0.230100
@<TRIPOS>BOND
     1     1     2 ar  
     2     1     5 ar  
     3     1    17 1   
     4     2     3 ar  
     5     2    41 1   
     6     3     4 ar  
     7     3    42 1   
     8     4    16 ar  
     9     5    16 ar  
    10     6     7 1   
    11     6    43 1   
    12     6    44 1   
    13     6    45 1   
    14     7     8 2   
    15     7     9 2   
    16     7    67 1   
    17    10    11 ar  
    18    10    12 ar  
    19    10    67 1   
    20    11    15 ar  
    21    11    48 1   
    22    12    13 ar  
    23    12    49 1   
    24    13    14 ar  
    25    13    50 1   
    26    14    15 ar  
    27    14    51 1   
    28    15    66 1   
    29    16    66 1   
    30    17    18 1   
    31    18    19 ar  
    32    18    22 ar  
    33    19    20 1   
    34    19    21 ar  
    35    21    24 ar  
    36    21    53 1   
    37    22    23 ar  
    38    22    54 1   
    39    23    24 ar  
    40    23    55 1   
    41    24    25 1   
    42    25    26 1   
    43    25    56 1   
    44    26    27 2   
    45    26    28 1   
    46    28    29 1   
    47    28    30 1   
    48    28    31 1   
    49    29    30 1   
    50    29    57 1   
    51    29    58 1   
    52    30    59 1   
    53    30    60 1   
    54    31    32 2   
    55    31    33 1   
    56    33    34 1   
    57    33    61 1   
    58    34    35 ar  
    59    34    40 ar  
    60    35    36 ar  
    61    35    62 1   
    62    36    37 ar  
    63    36    63 1   
    64    37    38 1   
    65    37    39 ar  
    66    39    40 ar  
    67    39    64 1   
    68    40    65 1   
    69    46    67 1   
    70    47    67 1   
    71    52    66 1   
@<TRIPOS>SUBSTRUCTURE
     1 DWF         1 TEMP              0 ****  ****    0 ROOT
