@<TRIPOS>MOLECULE
DWG
   55    59     1     0     0
SMALL
abcg2


@<TRIPOS>ATOM
      1 C4          -4.0220     1.2950    -0.6440 c          1 DWG       0.580100
      2 C5          -3.0350     1.7930     0.4040 c6         1 DWG      -0.117600
      3 C6          -3.1590     3.2310     0.5850 c1         1 DWG       0.307900
      4 C8          -1.5690     1.4140     0.1000 c6         1 DWG      -0.049400
      5 C10         -1.5620    -1.0320     0.8670 ca         1 DWG      -0.066300
      6 C13         -1.7980    -2.8570     3.0080 ca         1 DWG      -0.103000
      7 C15         -1.8510    -0.6030     2.1610 ca         1 DWG      -0.106500
      8 C20          0.3380    -0.9620    -1.9450 ca         1 DWG      -0.231300
      9 C21          0.0370    -0.2550    -0.7820 ca         1 DWG       0.175300
     10 C26          5.1700     1.1310     1.6460 ca         1 DWG      -0.153500
     11 C28          7.3500     0.6300     0.7530 ca         1 DWG      -0.140000
     12 C12         -1.4590    -3.3000     1.7370 ca         1 DWG      -0.109500
     13 C14         -1.9770    -1.5000     3.2160 ca         1 DWG      -0.109500
     14 C27          6.5480     1.1710     1.7520 ca         1 DWG      -0.082000
     15 C29          6.7390     0.0520    -0.3490 ca         1 DWG      -0.082000
     16 C11         -1.3320    -2.4000     0.6900 ca         1 DWG      -0.106500
     17 C30          5.3560     0.0040    -0.4720 ca         1 DWG      -0.153500
     18 C32          1.6940    -1.1170    -2.1920 ca         1 DWG       0.145900
     19 C25          4.5510     0.5470     0.5330 ca         1 DWG       0.317000
     20 C23          2.2490     0.0300    -0.3390 ca         1 DWG       0.388900
     21 C19         -0.6960    -1.4940    -2.8950 c6         1 DWG      -0.011100
     22 C18         -2.1030    -1.5460    -2.3080 c6         1 DWG      -0.070400
     23 C2          -3.8420    -0.1530    -1.0150 c6         1 DWG      -0.156700
     24 C16         -2.3780    -0.2900    -1.4950 c6         1 DWG      -0.044700
     25 C9          -1.3950    -0.0580    -0.3090 c6         1 DWG      -0.042000
     26 C1          -4.8880    -0.6060    -2.0220 c3         1 DWG      -0.080100
     27 N7          -3.2300     4.3690     0.7320 n1         1 DWG      -0.440000
     28 N31          2.6520    -0.6400    -1.4150 nb         1 DWG      -0.220000
     29 N22          0.9810     0.2340     0.0060 nb         1 DWG      -0.248000
     30 N24          3.1610     0.5650     0.5230 nu         1 DWG      -0.927900
     31 O33         -4.8550     2.0240    -1.1170 o          1 DWG      -0.489100
     32 H2          -1.2230     2.0350    -0.7290 hc         1 DWG       0.071200
     33 H4          -1.8970    -3.5580     3.8260 ha         1 DWG       0.116000
     34 H5          -1.9600     0.4460     2.3950 ha         1 DWG       0.113500
     35 H7           8.4280     0.6600     0.8360 ha         1 DWG       0.115000
     36 H8          -1.2780    -4.3520     1.5560 ha         1 DWG       0.114500
     37 H9          -2.2090    -1.1240     4.2040 ha         1 DWG       0.114500
     38 H10          6.9970     1.6280     2.6240 ha         1 DWG       0.112000
     39 H11          7.3440    -0.3740    -1.1400 ha         1 DWG       0.112000
     40 H12         -1.0110    -2.7840    -0.2670 ha         1 DWG       0.113500
     41 H13          4.9110    -0.4520    -1.3400 ha         1 DWG       0.128500
     42 H14          2.0230    -1.6630    -3.0710 h4         1 DWG       0.023100
     43 H15         -0.7160    -0.8480    -3.7790 hc         1 DWG       0.051200
     44 H16         -0.3980    -2.4830    -3.2490 hc         1 DWG       0.051200
     45 H17         -2.8080    -1.5990    -3.1360 hc         1 DWG       0.052700
     46 H18         -2.2670    -2.4490    -1.7200 hc         1 DWG       0.052700
     47 H19         -3.9550    -0.7470    -0.0990 hc         1 DWG       0.081700
     48 H20         -2.1890     0.5420    -2.1900 hc         1 DWG       0.056700
     49 H21         -4.8230    -1.6810    -2.1820 hc         1 DWG       0.045367
     50 H22         -5.8920    -0.3930    -1.6570 hc         1 DWG       0.045367
     51 H23         -4.7680    -0.1110    -2.9860 hc         1 DWG       0.045367
     52 H24          2.7310     1.0220     1.3120 hn         1 DWG       0.509000
     53 H1          -3.3560     1.3240     1.3410 hc         1 DWG       0.096700
     54 H3          -0.9460     1.6710     0.9550 hc         1 DWG       0.071200
     55 H6           4.5610     1.5570     2.4360 ha         1 DWG       0.128500
@<TRIPOS>BOND
     1     1     2 1   
     2     1    23 1   
     3     1    31 2   
     4     2     3 1   
     5     2     4 1   
     6     2    53 1   
     7     3    27 3   
     8     4    25 1   
     9     4    32 1   
    10     4    54 1   
    11     5     7 ar  
    12     5    16 ar  
    13     5    25 1   
    14     6    12 ar  
    15     6    13 ar  
    16     6    33 1   
    17     7    13 ar  
    18     7    34 1   
    19     8     9 ar  
    20     8    18 ar  
    21     8    21 1   
    22     9    25 1   
    23     9    29 ar  
    24    10    14 ar  
    25    10    19 ar  
    26    10    55 1   
    27    11    14 ar  
    28    11    15 ar  
    29    11    35 1   
    30    12    16 ar  
    31    12    36 1   
    32    13    37 1   
    33    14    38 1   
    34    15    17 ar  
    35    15    39 1   
    36    16    40 1   
    37    17    19 ar  
    38    17    41 1   
    39    18    28 ar  
    40    18    42 1   
    41    19    30 1   
    42    20    28 ar  
    43    20    29 ar  
    44    20    30 1   
    45    21    22 1   
    46    21    43 1   
    47    21    44 1   
    48    22    24 1   
    49    22    45 1   
    50    22    46 1   
    51    23    24 1   
    52    23    26 1   
    53    23    47 1   
    54    24    25 1   
    55    24    48 1   
    56    26    49 1   
    57    26    50 1   
    58    26    51 1   
    59    30    52 1   
@<TRIPOS>SUBSTRUCTURE
     1 DWG         1 TEMP              0 ****  ****    0 ROOT
