@<TRIPOS>MOLECULE
DWG
   55    59     1     0     0
SMALL
No Charge or Current Charge


@<TRIPOS>ATOM
      1 C4          -4.0440     1.4170    -0.7290 c          1 DWG       0.580100
      2 C5          -3.0570     1.9280     0.3290 c6         1 DWG      -0.117600
      3 C6          -3.1310     3.3850     0.5410 c1         1 DWG       0.307900
      4 C8          -1.5810     1.4410     0.1020 c6         1 DWG      -0.049400
      5 C10         -1.6430    -1.0580     0.9410 ca         1 DWG      -0.066300
      6 C13         -1.9820    -2.8800     3.1150 ca         1 DWG      -0.103000
      7 C15         -1.9800    -0.6060     2.2460 ca         1 DWG      -0.106500
      8 C20          0.3840    -1.1360    -1.8460 ca         1 DWG      -0.231300
      9 C21          0.0560    -0.3350    -0.7270 ca         1 DWG       0.175300
     10 C26          5.3270     0.7080     1.7650 ca         1 DWG      -0.153500
     11 C28          7.4590     0.8310     0.6000 ca         1 DWG      -0.140000
     12 C12         -1.5770    -3.3470     1.8600 ca         1 DWG      -0.109500
     13 C14         -2.1660    -1.5060     3.3090 ca         1 DWG      -0.109500
     14 C27          6.7280     0.8270     1.7990 ca         1 DWG      -0.082000
     15 C29          6.7890     0.7230    -0.6300 ca         1 DWG      -0.082000
     16 C11         -1.3930    -2.4470     0.7970 ca         1 DWG      -0.106500
     17 C30          5.3880     0.6030    -0.6580 ca         1 DWG      -0.153500
     18 C32          1.7510    -1.3370    -2.1140 ca         1 DWG       0.145900
     19 C25          4.6480     0.5820     0.5400 ca         1 DWG       0.317000
     20 C23          2.3010    -0.0620    -0.2970 ca         1 DWG       0.388900
     21 C19         -0.6670    -1.7640    -2.7660 c6         1 DWG      -0.011100
     22 C18         -2.1280    -1.6460    -2.2730 c6         1 DWG      -0.070400
     23 C2          -3.8710    -0.0680    -1.1280 c6         1 DWG      -0.156700
     24 C16         -2.3740    -0.3140    -1.5130 c6         1 DWG      -0.044700
     25 C9          -1.4050    -0.0830    -0.2760 c6         1 DWG      -0.042000
     26 C1          -4.9330    -0.4980    -2.1930 c3         1 DWG      -0.080100
     27 N7          -3.1580     4.5330     0.7330 n1         1 DWG      -0.440000
     28 N31          2.7130    -0.8050    -1.3390 nb         1 DWG      -0.220000
     29 N22          1.0300     0.1850     0.0550 nb         1 DWG      -0.248000
     30 N24          3.2530     0.4800     0.5590 nu         1 DWG      -0.927900
     31 O33         -4.8950     2.1380    -1.2400 o          1 DWG      -0.489100
     32 H2          -1.1510     2.0400    -0.7150 hc         1 DWG       0.071200
     33 H4          -2.1200    -3.5750     3.9410 ha         1 DWG       0.116000
     34 H5          -2.0760     0.4450     2.4840 ha         1 DWG       0.113500
     35 H7           8.5430     0.9250     0.6230 ha         1 DWG       0.115000
     36 H8          -1.3880    -4.4070     1.7110 ha         1 DWG       0.114500
     37 H9          -2.4370    -1.1320     4.2940 ha         1 DWG       0.114500
     38 H10          7.2450     0.9160     2.7520 ha         1 DWG       0.112000
     39 H11          7.3540     0.7380    -1.5600 ha         1 DWG       0.112000
     40 H12         -1.0150    -2.8510    -0.1340 ha         1 DWG       0.113500
     41 H13          4.8870     0.5470    -1.6180 ha         1 DWG       0.128500
     42 H14          2.0810    -1.9370    -2.9610 h4         1 DWG       0.023100
     43 H15         -0.5890    -1.2770    -3.7490 hc         1 DWG       0.051200
     44 H16         -0.4280    -2.8230    -2.9410 hc         1 DWG       0.051200
     45 H17         -2.7650    -1.6970    -3.1650 hc         1 DWG       0.052700
     46 H18         -2.4280    -2.5090    -1.6690 hc         1 DWG       0.052700
     47 H19         -4.0370    -0.6540    -0.2150 hc         1 DWG       0.081700
     48 H20         -2.1260     0.4610    -2.2550 hc         1 DWG       0.056700
     49 H21         -4.9240    -1.5810    -2.3610 hc         1 DWG       0.045367
     50 H22         -5.9490    -0.2450    -1.8650 hc         1 DWG       0.045367
     51 H23         -4.7600    -0.0030    -3.1560 hc         1 DWG       0.045367
     52 H24          2.8340     0.8110     1.4270 hn         1 DWG       0.509000
     53 H1          -3.4200     1.4620     1.2480 hc         1 DWG       0.096700
     54 H3          -0.9690     1.6970     0.9790 hc         1 DWG       0.071200
     55 H6           4.7700     0.7040     2.6980 ha         1 DWG       0.128500
@<TRIPOS>BOND
     1     1     2 1   
     2     1    23 1   
     3     1    31 2   
     4     2     3 1   
     5     2     4 1   
     6     2    53 1   
     7     3    27 3   
     8     4    25 1   
     9     4    32 1   
    10     4    54 1   
    11     5     7 ar  
    12     5    16 ar  
    13     5    25 1   
    14     6    12 ar  
    15     6    13 ar  
    16     6    33 1   
    17     7    13 ar  
    18     7    34 1   
    19     8     9 ar  
    20     8    18 ar  
    21     8    21 1   
    22     9    25 1   
    23     9    29 ar  
    24    10    14 ar  
    25    10    19 ar  
    26    10    55 1   
    27    11    14 ar  
    28    11    15 ar  
    29    11    35 1   
    30    12    16 ar  
    31    12    36 1   
    32    13    37 1   
    33    14    38 1   
    34    15    17 ar  
    35    15    39 1   
    36    16    40 1   
    37    17    19 ar  
    38    17    41 1   
    39    18    28 ar  
    40    18    42 1   
    41    19    30 1   
    42    20    28 ar  
    43    20    29 ar  
    44    20    30 1   
    45    21    22 1   
    46    21    43 1   
    47    21    44 1   
    48    22    24 1   
    49    22    45 1   
    50    22    46 1   
    51    23    24 1   
    52    23    26 1   
    53    23    47 1   
    54    24    25 1   
    55    24    48 1   
    56    26    49 1   
    57    26    50 1   
    58    26    51 1   
    59    30    52 1   
@<TRIPOS>SUBSTRUCTURE
     1 DWG         1 TEMP              0 ****  ****    0 ROOT
