@<TRIPOS>MOLECULE
DWH
   37    38     1     0     0
SMALL
abcg2


@<TRIPOS>ATOM
      1 C1          -4.4980     0.6230     0.1030 ca         1 DWH      -0.309500
      2 N1          -6.5200     0.4710    -1.5890 n8         1 DWH      -1.001100
      3 O1          -6.6310    -0.8800     0.4860 o          1 DWH      -0.546500
      4 S1          -6.2500     0.4530     0.0430 sy         1 DWH       1.132600
      5 C2          -3.9200     1.8180     0.5050 ca         1 DWH       0.021000
      6 O2          -6.8380     1.5990     0.7260 o          1 DWH      -0.546500
      7 C3          -2.5450     1.9260     0.5440 ca         1 DWH      -0.174500
      8 C4          -1.7260     0.8490     0.1890 ca         1 DWH       0.370000
      9 C5          -2.3220    -0.3530    -0.2100 ca         1 DWH      -0.174500
     10 C6          -3.6990    -0.4570    -0.2510 ca         1 DWH       0.021000
     11 N7          -0.3590     1.0740     0.2580 nu         1 DWH      -0.918900
     12 C8           0.7010     0.2650     0.0250 ca         1 DWH       0.447900
     13 N9           1.8880     0.8350     0.1650 nb         1 DWH      -0.346000
     14 C10          2.9320     0.0390    -0.0610 ca         1 DWH       0.447900
     15 N11          4.1500     0.5580     0.0580 nu         1 DWH      -0.904100
     16 N12          2.8380    -1.2610    -0.4050 nb         1 DWH      -0.299000
     17 C13          1.6080    -1.6810    -0.5060 ca         1 DWH       0.306000
     18 CL13         1.4100    -3.3390    -0.9450 cl         1 DWH      -0.118000
     19 N14          0.4980    -1.0120    -0.3180 nb         1 DWH      -0.291000
     20 C15          5.3570    -0.1910    -0.1580 c3         1 DWH       0.172800
     21 C16          6.5520     0.7170     0.0010 c          1 DWH       0.581100
     22 C17          8.9020     0.7710    -0.0840 c3         1 DWH       0.152900
     23 O17          7.6700     0.0530    -0.2080 os         1 DWH      -0.434100
     24 O18          6.4880     1.8860     0.2820 o          1 DWH      -0.486000
     25 HN11         4.2240     1.5340     0.3040 hn         1 DWH       0.537000
     26 HN1         -6.4050     1.3950    -1.9930 hn         1 DWH       0.471000
     27 H2          -4.5260     2.6670     0.7890 ha         1 DWH       0.138500
     28 H3          -2.0990     2.8610     0.8610 ha         1 DWH       0.140000
     29 H5          -1.7210    -1.2040    -0.4840 ha         1 DWH       0.140000
     30 H15          5.4490    -1.0170     0.5530 h1         1 DWH       0.091700
     31 H15A         5.3800    -0.6350    -1.1570 h1         1 DWH       0.091700
     32 H6          -4.1400    -1.3930    -0.5660 ha         1 DWH       0.138500
     33 HN7         -0.0890     2.0080     0.5340 hn         1 DWH       0.517000
     34 H17          8.9590     1.5840    -0.8060 h1         1 DWH       0.054033
     35 H17A         9.0270     1.1680     0.9220 h1         1 DWH       0.054033
     36 H17B         9.6860     0.0490    -0.2890 h1         1 DWH       0.054033
     37 HN1A        -7.4400     0.1030    -1.8150 hn         1 DWH       0.471000
@<TRIPOS>BOND
     1     1     4 1   
     2     1     5 ar  
     3     1    10 ar  
     4     2     4 1   
     5     2    26 1   
     6     2    37 1   
     7     3     4 2   
     8     4     6 2   
     9     5     7 ar  
    10     5    27 1   
    11     7     8 ar  
    12     7    28 1   
    13     8     9 ar  
    14     8    11 1   
    15     9    10 ar  
    16     9    29 1   
    17    10    32 1   
    18    11    12 1   
    19    11    33 1   
    20    12    13 ar  
    21    12    19 ar  
    22    13    14 ar  
    23    14    15 1   
    24    14    16 ar  
    25    15    20 1   
    26    15    25 1   
    27    16    17 ar  
    28    17    18 1   
    29    17    19 ar  
    30    20    21 1   
    31    20    30 1   
    32    20    31 1   
    33    21    23 1   
    34    21    24 2   
    35    22    23 1   
    36    22    34 1   
    37    22    35 1   
    38    22    36 1   
@<TRIPOS>SUBSTRUCTURE
     1 DWH         1 TEMP              0 ****  ****    0 ROOT
