@<TRIPOS>MOLECULE
DWH
   37    38     1     0     0
SMALL
No Charge or Current Charge


@<TRIPOS>ATOM
      1 C1          -4.5840     0.5780    -0.0320 ca         1 DWH      -0.309500
      2 N1          -6.7580     1.1940    -1.4670 n8         1 DWH      -1.001100
      3 O1          -6.7680    -0.9580    -0.3360 o          1 DWH      -0.546500
      4 S1          -6.3690     0.4250    -0.0840 sy         1 DWH       1.132600
      5 C2          -3.9880     1.6890     0.5950 ca         1 DWH       0.021000
      6 O2          -6.9950     1.2430     0.9520 o          1 DWH      -0.546500
      7 C3          -2.5880     1.8040     0.6310 ca         1 DWH      -0.174500
      8 C4          -1.7740     0.8170     0.0540 ca         1 DWH       0.370000
      9 C5          -2.3740    -0.2800    -0.5870 ca         1 DWH      -0.174500
     10 C6          -3.7730    -0.4060    -0.6300 ca         1 DWH       0.021000
     11 N7          -0.3870     0.9860     0.1070 nu         1 DWH      -0.918900
     12 C8           0.6980     0.1310     0.0810 ca         1 DWH       0.447900
     13 N9           1.8920     0.7360     0.0320 nb         1 DWH      -0.346000
     14 C10          2.9360    -0.1000     0.0210 ca         1 DWH       0.447900
     15 N11          4.1800     0.4940    -0.0330 nu         1 DWH      -0.904100
     16 N12          2.8740    -1.4410     0.0580 nb         1 DWH      -0.299000
     17 C13          1.6220    -1.9320     0.1120 ca         1 DWH       0.306000
     18 Cl13         1.4430    -3.6780     0.1660 cl         1 DWH      -0.118000
     19 N14          0.4950    -1.1960     0.1290 nb         1 DWH      -0.291000
     20 C15          5.5200    -0.1870    -0.0580 c3         1 DWH       0.172800
     21 C16          6.7350     0.7850    -0.1210 c          1 DWH       0.581100
     22 C17          9.1460     0.8740    -0.2000 c3         1 DWH       0.152900
     23 O17          7.9290     0.1060    -0.1410 os         1 DWH      -0.434100
     24 O18          6.6400     2.0090    -0.1510 o          1 DWH      -0.486000
     25 HN11         4.1700     1.5180    -0.0610 hn         1 DWH       0.537000
     26 HN1         -7.4650     1.8400    -1.1240 hn         1 DWH       0.471000
     27 H2          -4.6020     2.4630     1.0540 ha         1 DWH       0.138500
     28 H3          -2.1380     2.6630     1.1190 ha         1 DWH       0.140000
     29 H5          -1.7670    -1.0350    -1.0740 ha         1 DWH       0.140000
     30 H15          5.6550    -0.8060     0.8390 h1         1 DWH       0.091700
     31 H15A         5.6000    -0.8530    -0.9270 h1         1 DWH       0.091700
     32 H6          -4.2190    -1.2630    -1.1330 ha         1 DWH       0.138500
     33 HN7         -0.1010     1.9480     0.2780 hn         1 DWH       0.517000
     34 H17          9.1790     1.4900    -1.1080 h1         1 DWH       0.054033
     35 H17A         9.2340     1.5360     0.6720 h1         1 DWH       0.054033
     36 H17B        10.0180     0.2090    -0.2090 h1         1 DWH       0.054033
     37 HN1A        -7.3240     0.4800    -1.9200 hn         1 DWH       0.471000
@<TRIPOS>BOND
     1     1     4 1   
     2     1     5 ar  
     3     1    10 ar  
     4     2     4 1   
     5     2    26 1   
     6     2    37 1   
     7     3     4 2   
     8     4     6 2   
     9     5     7 ar  
    10     5    27 1   
    11     7     8 ar  
    12     7    28 1   
    13     8     9 ar  
    14     8    11 1   
    15     9    10 ar  
    16     9    29 1   
    17    10    32 1   
    18    11    12 1   
    19    11    33 1   
    20    12    13 ar  
    21    12    19 ar  
    22    13    14 ar  
    23    14    15 1   
    24    14    16 ar  
    25    15    20 1   
    26    15    25 1   
    27    16    17 ar  
    28    17    18 1   
    29    17    19 ar  
    30    20    21 1   
    31    20    30 1   
    32    20    31 1   
    33    21    23 1   
    34    21    24 2   
    35    22    23 1   
    36    22    34 1   
    37    22    35 1   
    38    22    36 1   
@<TRIPOS>SUBSTRUCTURE
     1 DWH         1 TEMP              0 ****  ****    0 ROOT
