@<TRIPOS>MOLECULE
DWJ
   54    58     1     0     0
SMALL
No Charge or Current Charge


@<TRIPOS>ATOM
      1 C4          -2.7930     1.5630    -1.2380 c6         1 DWJ      -0.115600
      2 C5          -2.8200     2.6650    -2.2160 c1         1 DWJ       0.307900
      3 C7          -1.3500     0.9640    -1.0680 c6         1 DWJ      -0.052400
      4 C8          -1.2550    -0.3060    -0.1430 c6         1 DWJ      -0.016000
      5 C10         -1.2040    -1.0050     2.3530 ca         1 DWJ      -0.107000
      6 C13         -1.7120     1.5840     3.2710 ca         1 DWJ      -0.111500
      7 C15         -2.3160    -1.3410    -0.7240 c6         1 DWJ      -0.042700
      8 C17         -0.7330    -3.3910    -0.4810 c6         1 DWJ       0.004900
      9 C22          4.3060     0.3660    -0.1940 ca         1 DWJ      -0.148600
     10 C24          4.2660     2.5350     0.9500 ca         1 DWJ      -0.125000
     11 C26          6.1180     1.9870    -0.5190 ca         1 DWJ      -0.125000
     12 C25          5.4790     2.8920     0.3420 ca         1 DWJ      -0.078000
     13 C12         -1.5830     0.5390     4.1940 ca         1 DWJ      -0.105000
     14 C11         -1.3100    -0.7540     3.7320 ca         1 DWJ      -0.111500
     15 C23          3.6840     1.2810     0.6910 ca         1 DWJ      -0.049000
     16 C27          5.5410     0.7320    -0.7800 ca         1 DWJ      -0.049000
     17 C14         -1.6050     1.3320     1.8920 ca         1 DWJ      -0.107000
     18 C19          1.6950    -2.4620    -0.5150 cc         1 DWJ      -0.122000
     19 C9          -1.4030     0.0180     1.3910 ca         1 DWJ      -0.067300
     20 C18          0.3380    -2.3270    -0.4360 cd         1 DWJ      -0.189300
     21 C30          0.1200    -0.9340    -0.3190 cd         1 DWJ       0.268300
     22 C3          -3.8780     0.5020    -1.4840 c          1 DWJ       0.579100
     23 C16         -2.1510    -2.8100    -0.2100 c6         1 DWJ      -0.069400
     24 C2          -3.7710    -0.7760    -0.6140 c6         1 DWJ      -0.156700
     25 C1          -4.9220    -1.7840    -0.9380 c3         1 DWJ      -0.080100
     26 N6          -2.8070     3.5490    -2.9740 n1         1 DWJ      -0.440000
     27 N29          1.2780    -0.2940    -0.3180 nc         1 DWJ      -0.485800
     28 N20          2.3160    -1.2160    -0.4340 n          1 DWJ       0.125000
     29 O31         -4.7570     0.6450    -2.3290 o          1 DWJ      -0.489100
     30 O28          4.4910    -1.9390    -0.7680 o          1 DWJ      -0.529100
     31 H1          -3.0840     1.9940    -0.2780 hc         1 DWJ       0.094700
     32 H2          -0.9810     0.6840    -2.0660 hc         1 DWJ       0.070700
     33 H3          -0.6510     1.7400    -0.7260 hc         1 DWJ       0.070700
     34 H4          -0.9270    -2.0070     2.0530 ha         1 DWJ       0.115000
     35 H5          -1.8810     2.5990     3.6250 ha         1 DWJ       0.114000
     36 H6          -2.1140    -1.4230    -1.8030 hc         1 DWJ       0.059700
     37 H7          -0.7240    -3.8630    -1.4740 hc         1 DWJ       0.051200
     38 H8          -0.5170    -4.1940     0.2370 hc         1 DWJ       0.051200
     39 H9           3.7780     3.2270     1.6320 ha         1 DWJ       0.119500
     40 H10          7.0630     2.2570    -0.9850 ha         1 DWJ       0.119500
     41 H11          5.9270     3.8620     0.5450 ha         1 DWJ       0.117000
     42 H12         -1.6600     0.7370     5.2610 ha         1 DWJ       0.115000
     43 H13         -1.1640    -1.5630     4.4430 ha         1 DWJ       0.114000
     44 H14          2.7660     1.0260     1.2120 ha         1 DWJ       0.129500
     45 H15          6.0540     0.0460    -1.4520 ha         1 DWJ       0.129500
     46 H16         -1.6530     2.1960     1.2410 ha         1 DWJ       0.115000
     47 H17          2.3270    -3.3350    -0.6200 h4         1 DWJ       0.175000
     48 H18         -2.4240    -2.8890     0.8480 hc         1 DWJ       0.050200
     49 H19         -2.8610    -3.4700    -0.7260 hc         1 DWJ       0.050200
     50 H20         -3.8790    -0.4490     0.4280 hc         1 DWJ       0.078700
     51 H21         -4.9470    -2.6140    -0.2220 hc         1 DWJ       0.045033
     52 H22         -5.9030    -1.2980    -0.8840 hc         1 DWJ       0.045033
     53 H23         -4.8140    -2.2080    -1.9450 hc         1 DWJ       0.045033
     54 C21          3.7310    -1.0090    -0.5000 c          1 DWJ       0.609500
@<TRIPOS>BOND
     1     1     2 1   
     2     1     3 1   
     3     1    22 1   
     4     1    31 1   
     5     2    26 3   
     6     3     4 1   
     7     3    32 1   
     8     3    33 1   
     9     4     7 1   
    10     4    19 1   
    11     4    21 1   
    12     5    14 ar  
    13     5    19 ar  
    14     5    34 1   
    15     6    13 ar  
    16     6    17 ar  
    17     6    35 1   
    18     7    23 1   
    19     7    24 1   
    20     7    36 1   
    21     8    20 1   
    22     8    23 1   
    23     8    37 1   
    24     8    38 1   
    25     9    15 ar  
    26     9    16 ar  
    27     9    54 1   
    28    10    12 ar  
    29    10    15 ar  
    30    10    39 1   
    31    11    12 ar  
    32    11    16 ar  
    33    11    40 1   
    34    12    41 1   
    35    13    14 ar  
    36    13    42 1   
    37    14    43 1   
    38    15    44 1   
    39    16    45 1   
    40    17    19 ar  
    41    17    46 1   
    42    18    20 2   
    43    18    28 1   
    44    18    47 1   
    45    20    21 1   
    46    21    27 2   
    47    22    24 1   
    48    22    29 2   
    49    23    48 1   
    50    23    49 1   
    51    24    25 1   
    52    24    50 1   
    53    25    51 1   
    54    25    52 1   
    55    25    53 1   
    56    27    28 1   
    57    28    54 1   
    58    30    54 2   
@<TRIPOS>SUBSTRUCTURE
     1 DWJ         1 TEMP              0 ****  ****    0 ROOT
