@<TRIPOS>MOLECULE
DWJ
   54    58     1     0     0
SMALL
abcg2


@<TRIPOS>ATOM
      1 C4          -2.5820     1.5360    -1.2350 c6         1 DWJ      -0.115600
      2 C5          -2.5580     2.5500    -2.2780 c1         1 DWJ       0.307900
      3 C7          -1.1740     0.9290    -1.0480 c6         1 DWJ      -0.052400
      4 C8          -1.1490    -0.3160    -0.1450 c6         1 DWJ      -0.016000
      5 C10         -1.0990    -0.9890     2.3080 ca         1 DWJ      -0.107000
      6 C13         -1.6590     1.5660     3.1790 ca         1 DWJ      -0.111500
      7 C15         -2.2230    -1.3020    -0.7040 c6         1 DWJ      -0.042700
      8 C17         -0.7750    -3.3800    -0.4710 c6         1 DWJ       0.004900
      9 C22          4.0600     0.3460    -0.1820 ca         1 DWJ      -0.148600
     10 C24          4.0590     2.3390     1.1680 ca         1 DWJ      -0.125000
     11 C26          5.6320     2.1160    -0.6380 ca         1 DWJ      -0.125000
     12 C25          5.1000     2.8570     0.4090 ca         1 DWJ      -0.078000
     13 C12         -1.5000     0.5540     4.1110 ca         1 DWJ      -0.105000
     14 C11         -1.2070    -0.7270     3.6640 ca         1 DWJ      -0.111500
     15 C23          3.5290     1.0920     0.8710 ca         1 DWJ      -0.049000
     16 C27          5.1260     0.8580    -0.9220 ca         1 DWJ      -0.049000
     17 C14         -1.5530     1.2950     1.8190 ca         1 DWJ      -0.107000
     18 C19          1.7010    -2.5720    -0.4770 cc         1 DWJ      -0.122000
     19 C9          -1.3000     0.0080     1.3470 ca         1 DWJ      -0.067300
     20 C18          0.3510    -2.4030    -0.4050 cd         1 DWJ      -0.189300
     21 C30          0.1800    -0.9970    -0.3040 cd         1 DWJ       0.268300
     22 C3          -3.6530     0.4930    -1.5240 c          1 DWJ       0.579100
     23 C16         -2.1290    -2.7250    -0.1590 c6         1 DWJ      -0.069400
     24 C2          -3.6350    -0.6820    -0.5820 c6         1 DWJ      -0.156700
     25 C1          -4.7850    -1.6360    -0.8620 c3         1 DWJ      -0.080100
     26 N6          -2.5130     3.3540    -3.0980 n1         1 DWJ      -0.440000
     27 N29          1.3200    -0.3600    -0.3120 nc         1 DWJ      -0.485800
     28 N20          2.2540    -1.3210    -0.4100 n          1 DWJ       0.125000
     29 O31         -4.4260     0.6240    -2.4380 o          1 DWJ      -0.489100
     30 O28          4.3840    -1.9010    -0.8390 o          1 DWJ      -0.529100
     31 H1          -2.9070     2.0340    -0.3160 hc         1 DWJ       0.094700
     32 H2          -0.8020     0.6350    -2.0320 hc         1 DWJ       0.070700
     33 H3          -0.4990     1.7010    -0.6790 hc         1 DWJ       0.070700
     34 H4          -0.8220    -1.9900     2.0100 ha         1 DWJ       0.115000
     35 H5          -1.8600     2.5790     3.5010 ha         1 DWJ       0.114000
     36 H6          -2.0010    -1.3880    -1.7790 hc         1 DWJ       0.059700
     37 H7          -0.8140    -3.8020    -1.4790 hc         1 DWJ       0.051200
     38 H8          -0.6040    -4.2200     0.2030 hc         1 DWJ       0.051200
     39 H9           3.6530     2.9090     1.9930 ha         1 DWJ       0.119500
     40 H10          6.4450     2.5150    -1.2300 ha         1 DWJ       0.119500
     41 H11          5.5000     3.8360     0.6370 ha         1 DWJ       0.117000
     42 H12         -1.5820     0.7620     5.1690 ha         1 DWJ       0.115000
     43 H13         -1.0480    -1.5290     4.3730 ha         1 DWJ       0.114000
     44 H14          2.7170     0.7030     1.4670 ha         1 DWJ       0.129500
     45 H15          5.5500     0.2770    -1.7310 ha         1 DWJ       0.129500
     46 H16         -1.6430     2.1340     1.1450 ha         1 DWJ       0.115000
     47 H17          2.3050    -3.4590    -0.5640 h4         1 DWJ       0.175000
     48 H18         -2.3510    -2.7480     0.9080 hc         1 DWJ       0.050200
     49 H19         -2.8980    -3.3350    -0.6310 hc         1 DWJ       0.050200
     50 H20         -3.7480    -0.2880     0.4370 hc         1 DWJ       0.078700
     51 H21         -4.8410    -2.4080    -0.0970 hc         1 DWJ       0.045033
     52 H22         -5.7350    -1.1040    -0.8530 hc         1 DWJ       0.045033
     53 H23         -4.6860    -2.1260    -1.8310 hc         1 DWJ       0.045033
     54 C21          3.6170    -1.0310    -0.5020 c          1 DWJ       0.609500
@<TRIPOS>BOND
     1     1     2 1   
     2     1     3 1   
     3     1    22 1   
     4     1    31 1   
     5     2    26 3   
     6     3     4 1   
     7     3    32 1   
     8     3    33 1   
     9     4     7 1   
    10     4    19 1   
    11     4    21 1   
    12     5    14 ar  
    13     5    19 ar  
    14     5    34 1   
    15     6    13 ar  
    16     6    17 ar  
    17     6    35 1   
    18     7    23 1   
    19     7    24 1   
    20     7    36 1   
    21     8    20 1   
    22     8    23 1   
    23     8    37 1   
    24     8    38 1   
    25     9    15 ar  
    26     9    16 ar  
    27     9    54 1   
    28    10    12 ar  
    29    10    15 ar  
    30    10    39 1   
    31    11    12 ar  
    32    11    16 ar  
    33    11    40 1   
    34    12    41 1   
    35    13    14 ar  
    36    13    42 1   
    37    14    43 1   
    38    15    44 1   
    39    16    45 1   
    40    17    19 ar  
    41    17    46 1   
    42    18    20 2   
    43    18    28 1   
    44    18    47 1   
    45    20    21 1   
    46    21    27 2   
    47    22    24 1   
    48    22    29 2   
    49    23    48 1   
    50    23    49 1   
    51    24    25 1   
    52    24    50 1   
    53    25    51 1   
    54    25    52 1   
    55    25    53 1   
    56    27    28 1   
    57    28    54 1   
    58    30    54 2   
@<TRIPOS>SUBSTRUCTURE
     1 DWJ         1 TEMP              0 ****  ****    0 ROOT
