@<TRIPOS>MOLECULE
DWM
   65    69     1     0     0
SMALL
abcg2


@<TRIPOS>ATOM
      1 N1         -59.1700     9.4240   -80.3530 nc         1 DWM      -0.525800
      2 N3         -60.7590    12.6710   -83.2140 n          1 DWM      -0.407800
      3 C4         -62.1040     4.3290   -78.6670 ca         1 DWM      -0.086000
      4 C5         -61.3820     5.4650   -78.9990 ca         1 DWM      -0.160000
      5 C6         -61.8670     6.3450   -79.9730 ca         1 DWM      -0.019000
      6 C7         -61.3430     8.5280   -81.0770 c          1 DWM       0.539600
      7 C8         -60.2790     9.5520   -81.0920 cd         1 DWM       0.209500
      8 C10        -57.2890    11.6140   -78.7100 ca         1 DWM      -0.136300
      9 C13        -57.4540    13.2480   -76.4910 ca         1 DWM       0.175000
     10 C15        -56.2480    12.4850   -78.3960 ca         1 DWM      -0.069000
     11 C17        -58.5530    12.6340   -82.0660 c6         1 DWM      -0.012400
     12 C20        -61.2230    11.3440   -82.8020 c6         1 DWM       0.189300
     13 C21        -60.2490    10.7520   -81.8330 cd         1 DWM      -0.165300
     14 C22        -61.5710    13.7440   -83.4090 c          1 DWM       0.647700
     15 C24        -63.9050    12.5200   -83.7460 cc         1 DWM      -0.121000
     16 C26        -65.1140    14.4020   -83.4910 cd         1 DWM      -0.171000
     17 C25        -65.2140    13.0500   -83.7670 cc         1 DWM      -0.193000
     18 C3         -63.3110     4.0480   -79.2990 ca         1 DWM      -0.118000
     19 C11        -58.4160    11.5790   -77.8910 ca         1 DWM      -0.069000
     20 C14        -56.3190    13.3090   -77.2780 ca         1 DWM      -0.145500
     21 C12        -58.5090    12.4000   -76.7740 ca         1 DWM      -0.145500
     22 C27        -63.0810     6.0640   -80.6060 ca         1 DWM      -0.127000
     23 C2         -63.7990     4.9180   -80.2720 ca         1 DWM      -0.103300
     24 C23        -63.0310    13.5640   -83.4580 cd         1 DWM      -0.256600
     25 C16        -59.0510    11.3460   -81.4990 cc         1 DWM      -0.127300
     26 C19        -59.3140    12.8210   -83.3910 c6         1 DWM       0.102000
     27 C18        -58.7480    13.8240   -81.1190 c3         1 DWM      -0.085100
     28 C          -64.8820     3.5540   -82.0860 c3         1 DWM      -0.083100
     29 C9         -57.1710    10.7200   -79.9240 c3         1 DWM       0.137900
     30 C1         -65.0870     4.6090   -81.0080 c3         1 DWM       0.214600
     31 N4         -63.8010    14.6940   -83.3170 na         1 DWM      -0.076000
     32 N2         -58.4340    10.5140   -80.6150 na         1 DWM       0.144800
     33 N          -61.0880     7.4760   -80.2530 ns         1 DWM      -0.134000
     34 O2         -61.1140    14.8880   -83.5680 o          1 DWM      -0.641100
     35 O1         -62.3560     8.6560   -81.7640 o          1 DWM      -0.589100
     36 O          -66.1030     4.1080   -80.1280 oh         1 DWM      -0.666000
     37 F          -57.5380    14.0560   -75.4030 f          1 DWM      -0.178000
     38 H2         -60.4440     5.6830   -78.5030 ha         1 DWM       0.112000
     39 H3         -55.3750    12.5310   -79.0340 ha         1 DWM       0.124500
     40 H4         -57.4900    12.5410   -82.3070 hc         1 DWM       0.059700
     41 H5         -62.1950    11.4400   -82.3300 h1         1 DWM       0.075200
     42 H6         -61.3450    10.6900   -83.6720 h1         1 DWM       0.075200
     43 H7         -63.6370    11.4980   -83.9480 ha         1 DWM       0.139000
     44 H8         -65.8720    15.1620   -83.4030 h4         1 DWM       0.149000
     45 H9         -66.1260    12.5090   -83.9620 ha         1 DWM       0.137000
     46 H10        -63.8740     3.1640   -79.0340 ha         1 DWM       0.127000
     47 H11        -59.2360    10.9120   -78.1260 ha         1 DWM       0.124500
     48 H12        -55.5180    13.9920   -77.0260 ha         1 DWM       0.138000
     49 H13        -59.3810    12.3860   -76.1330 ha         1 DWM       0.138000
     50 H14        -63.4620     6.7410   -81.3540 ha         1 DWM       0.147000
     51 H15        -58.9810    12.0660   -84.1080 h1         1 DWM       0.069200
     52 H16        -59.1240    13.8070   -83.8020 h1         1 DWM       0.069200
     53 H17        -58.2230    13.6680   -80.1770 hc         1 DWM       0.047367
     54 H18        -58.3650    14.7350   -81.5820 hc         1 DWM       0.047367
     55 H19        -59.8070    13.9660   -80.8990 hc         1 DWM       0.047367
     56 H20        -65.8200     3.3630   -82.6090 hc         1 DWM       0.046367
     57 H21        -64.1400     3.8950   -82.8090 hc         1 DWM       0.046367
     58 H22        -64.5290     2.6230   -81.6390 hc         1 DWM       0.046367
     59 H23        -56.8140     9.7300   -79.6430 h1         1 DWM       0.077200
     60 H24        -56.4590    11.1430   -80.6320 h1         1 DWM       0.077200
     61 H25        -65.4410     5.5320   -81.4790 h1         1 DWM       0.040700
     62 H26        -63.4110    15.6060   -83.1360 hn         1 DWM       0.364000
     63 H27        -60.2110     7.5390   -79.7510 hn         1 DWM       0.170000
     64 H28        -66.2420     4.7570   -79.4270 ho         1 DWM       0.443000
     65 H1         -61.7200     3.6570   -77.9090 ha         1 DWM       0.114000
@<TRIPOS>BOND
     1     1     7 2   
     2     1    32 1   
     3     2    12 1   
     4     2    14 1   
     5     2    26 1   
     6     3     4 ar  
     7     3    18 ar  
     8     3    65 1   
     9     4     5 ar  
    10     4    38 1   
    11     5    22 ar  
    12     5    33 1   
    13     6     7 1   
    14     6    33 1   
    15     6    35 2   
    16     7    13 1   
    17     8    10 ar  
    18     8    19 ar  
    19     8    29 1   
    20     9    20 ar  
    21     9    21 ar  
    22     9    37 1   
    23    10    20 ar  
    24    10    39 1   
    25    11    25 1   
    26    11    26 1   
    27    11    27 1   
    28    11    40 1   
    29    12    13 1   
    30    12    41 1   
    31    12    42 1   
    32    13    25 2   
    33    14    24 1   
    34    14    34 2   
    35    15    17 1   
    36    15    24 2   
    37    15    43 1   
    38    16    17 2   
    39    16    31 1   
    40    16    44 1   
    41    17    45 1   
    42    18    23 ar  
    43    18    46 1   
    44    19    21 ar  
    45    19    47 1   
    46    20    48 1   
    47    21    49 1   
    48    22    23 ar  
    49    22    50 1   
    50    23    30 1   
    51    24    31 1   
    52    25    32 1   
    53    26    51 1   
    54    26    52 1   
    55    27    53 1   
    56    27    54 1   
    57    27    55 1   
    58    28    30 1   
    59    28    56 1   
    60    28    57 1   
    61    28    58 1   
    62    29    32 1   
    63    29    59 1   
    64    29    60 1   
    65    30    36 1   
    66    30    61 1   
    67    31    62 1   
    68    33    63 1   
    69    36    64 1   
@<TRIPOS>SUBSTRUCTURE
     1 DWM         1 TEMP              0 ****  ****    0 ROOT
