@<TRIPOS>MOLECULE
DWM
   65    69     1     0     0
SMALL
No Charge or Current Charge


@<TRIPOS>ATOM
      1 N1         -59.1840     9.4010   -80.2650 nc         1 DWM      -0.525800
      2 N3         -60.7500    12.7640   -83.1840 n          1 DWM      -0.407800
      3 C4         -62.0810     4.1520   -78.9270 ca         1 DWM      -0.086000
      4 C5         -61.3890     5.3390   -79.2140 ca         1 DWM      -0.160000
      5 C6         -61.9340     6.2930   -80.0920 ca         1 DWM      -0.019000
      6 C7         -61.3870     8.5880   -81.1340 c          1 DWM       0.539600
      7 C8         -60.2600     9.5860   -81.0340 cd         1 DWM       0.209500
      8 C10        -57.1170    11.6610   -78.6270 ca         1 DWM      -0.136300
      9 C13        -57.0980    13.4650   -76.4640 ca         1 DWM       0.175000
     10 C15        -56.0220    12.5290   -78.4330 ca         1 DWM      -0.069000
     11 C17        -58.5490    12.7480   -81.9090 c6         1 DWM      -0.012400
     12 C20        -61.1750    11.4100   -82.7090 c6         1 DWM       0.189300
     13 C21        -60.1790    10.8220   -81.7270 cd         1 DWM      -0.165300
     14 C22        -61.6350    13.8620   -83.3180 c          1 DWM       0.647700
     15 C24        -63.7610    12.4750   -83.9160 cc         1 DWM      -0.121000
     16 C26        -65.3480    14.0770   -83.7880 cd         1 DWM      -0.171000
     17 C25        -65.1300    12.7560   -84.0520 cc         1 DWM      -0.193000
     18 C3         -63.3300     3.9070   -79.5190 ca         1 DWM      -0.118000
     19 C11        -58.1990    11.6990   -77.7210 ca         1 DWM      -0.069000
     20 C14        -56.0140    13.4300   -77.3540 ca         1 DWM      -0.145500
     21 C12        -58.1880    12.6020   -76.6430 ca         1 DWM      -0.145500
     22 C27        -63.1930     6.0400   -80.6830 ca         1 DWM      -0.127000
     23 C2         -63.8950     4.8480   -80.4030 ca         1 DWM      -0.103300
     24 C23        -63.0990    13.6240   -83.5410 cd         1 DWM      -0.256600
     25 C16        -59.0200    11.4270   -81.3650 cc         1 DWM      -0.127300
     26 C19        -59.2670    12.9580   -83.2710 c6         1 DWM       0.102000
     27 C18        -58.8470    13.8980   -80.9090 c3         1 DWM      -0.085100
     28 C          -65.2550     3.3380   -81.9500 c3         1 DWM      -0.083100
     29 C9         -57.1160    10.6950   -79.8130 c3         1 DWM       0.137900
     30 C1         -65.2550     4.5910   -81.0540 c3         1 DWM       0.214600
     31 N4         -64.0900    14.6230   -83.4960 na         1 DWM      -0.076000
     32 N2         -58.4240    10.5390   -80.4780 na         1 DWM       0.144800
     33 N          -61.1730     7.4710   -80.3310 ns         1 DWM      -0.134000
     34 O2         -61.2130    15.0110   -83.2610 o          1 DWM      -0.641100
     35 O1         -62.3780     8.7450   -81.8440 o          1 DWM      -0.589100
     36 O          -66.2550     4.4460   -80.0430 oh         1 DWM      -0.666000
     37 F          -57.0890    14.3310   -75.4280 f          1 DWM      -0.178000
     38 H2         -60.4220     5.5170   -78.7480 ha         1 DWM       0.112000
     39 H3         -55.1780    12.5100   -79.1210 ha         1 DWM       0.124500
     40 H4         -57.4640    12.7380   -82.0770 hc         1 DWM       0.059700
     41 H5         -62.1460    11.4810   -82.1990 h1         1 DWM       0.075200
     42 H6         -61.2860    10.7390   -83.5730 h1         1 DWM       0.075200
     43 H7         -63.3390    11.4980   -84.1260 ha         1 DWM       0.139000
     44 H8         -66.2610    14.6630   -83.8000 h4         1 DWM       0.149000
     45 H9         -65.8830    12.0280   -84.3420 ha         1 DWM       0.137000
     46 H10        -63.8600     2.9860   -79.2860 ha         1 DWM       0.127000
     47 H11        -59.0500    11.0320   -77.8480 ha         1 DWM       0.124500
     48 H12        -55.1720    14.1010   -77.2070 ha         1 DWM       0.138000
     49 H13        -59.0230    12.6320   -75.9470 ha         1 DWM       0.138000
     50 H14        -63.6410     6.7560   -81.3630 ha         1 DWM       0.147000
     51 H15        -58.8690    12.2300   -83.9920 h1         1 DWM       0.069200
     52 H16        -59.0220    13.9530   -83.6690 h1         1 DWM       0.069200
     53 H17        -58.2950    13.7680   -79.9730 hc         1 DWM       0.047367
     54 H18        -58.5590    14.8690   -81.3280 hc         1 DWM       0.047367
     55 H19        -59.9140    13.9450   -80.6600 hc         1 DWM       0.047367
     56 H20        -66.2270     3.2170   -82.4420 hc         1 DWM       0.046367
     57 H21        -64.4880     3.4270   -82.7290 hc         1 DWM       0.046367
     58 H22        -65.0500     2.4320   -81.3670 hc         1 DWM       0.046367
     59 H23        -56.7820     9.7090   -79.4670 h1         1 DWM       0.077200
     60 H24        -56.3960    11.0350   -80.5660 h1         1 DWM       0.077200
     61 H25        -65.5050     5.4520   -81.6900 h1         1 DWM       0.040700
     62 H26        -63.9150    15.6010   -83.2780 hn         1 DWM       0.364000
     63 H27        -60.3020     7.5080   -79.8170 hn         1 DWM       0.170000
     64 H28        -66.1210     5.1900   -79.4170 ho         1 DWM       0.443000
     65 H1         -61.6510     3.4220   -78.2450 ha         1 DWM       0.114000
@<TRIPOS>BOND
     1     1     7 2   
     2     1    32 1   
     3     2    12 1   
     4     2    14 1   
     5     2    26 1   
     6     3     4 ar  
     7     3    18 ar  
     8     3    65 1   
     9     4     5 ar  
    10     4    38 1   
    11     5    22 ar  
    12     5    33 1   
    13     6     7 1   
    14     6    33 1   
    15     6    35 2   
    16     7    13 1   
    17     8    10 ar  
    18     8    19 ar  
    19     8    29 1   
    20     9    20 ar  
    21     9    21 ar  
    22     9    37 1   
    23    10    20 ar  
    24    10    39 1   
    25    11    25 1   
    26    11    26 1   
    27    11    27 1   
    28    11    40 1   
    29    12    13 1   
    30    12    41 1   
    31    12    42 1   
    32    13    25 2   
    33    14    24 1   
    34    14    34 2   
    35    15    17 1   
    36    15    24 2   
    37    15    43 1   
    38    16    17 2   
    39    16    31 1   
    40    16    44 1   
    41    17    45 1   
    42    18    23 ar  
    43    18    46 1   
    44    19    21 ar  
    45    19    47 1   
    46    20    48 1   
    47    21    49 1   
    48    22    23 ar  
    49    22    50 1   
    50    23    30 1   
    51    24    31 1   
    52    25    32 1   
    53    26    51 1   
    54    26    52 1   
    55    27    53 1   
    56    27    54 1   
    57    27    55 1   
    58    28    30 1   
    59    28    56 1   
    60    28    57 1   
    61    28    58 1   
    62    29    32 1   
    63    29    59 1   
    64    29    60 1   
    65    30    36 1   
    66    30    61 1   
    67    31    62 1   
    68    33    63 1   
    69    36    64 1   
@<TRIPOS>SUBSTRUCTURE
     1 DWM         1 TEMP              0 ****  ****    0 ROOT
