@<TRIPOS>MOLECULE
DWN
   57    59     1     0     0
SMALL
bcc


@<TRIPOS>ATOM
      1 O4           3.3330    -4.3780    -0.2260 o          1 DWN      -0.571100
      2 C4           3.1730    -3.1810    -0.1600 c          1 DWN       0.519100
      3 C5           2.6570    -2.5240     1.1110 c6         1 DWN       0.078100
      4 C6           3.8290    -2.1180     2.0060 c3         1 DWN      -0.117100
      5 O5           1.7730    -1.4690     0.8140 os         1 DWN      -0.423600
      6 C3           3.5390    -2.2490    -1.3080 c6         1 DWN       0.053500
      7 N3           3.7570    -2.8950    -2.5800 n8         1 DWN      -0.881800
      8 C2           2.5290    -1.1080    -1.4330 c6         1 DWN      -0.101400
      9 C1           2.2650    -0.4890    -0.0740 c6         1 DWN       0.401900
     10 O1           1.2970     0.4850    -0.1860 os         1 DWN      -0.530200
     11 P2           1.0450     1.5360     1.0780 p5         1 DWN       1.478800
     12 O3P         -0.1870     1.1440     1.8210 o          1 DWN      -0.849000
     13 O4P          2.3430     1.7410     1.7970 o          1 DWN      -0.849000
     14 OPP          0.7620     2.8100     0.0800 os         1 DWN      -0.711800
     15 P            0.2770     4.3190     0.5030 p5         1 DWN       1.469800
     16 O1P          1.1180     5.2810    -0.2750 o          1 DWN      -0.848500
     17 O2P          0.1400     4.4170     1.9890 o          1 DWN      -0.848500
     18 O5X         -1.1940     4.3790    -0.2140 os         1 DWN      -0.577200
     19 C5X         -2.2770     3.6020     0.2660 c3         1 DWN       0.201400
     20 C4X         -2.9210     2.8630    -0.8840 c5         1 DWN       0.135100
     21 O4X         -2.0780     1.8060    -1.3090 os         1 DWN      -0.349600
     22 C3X         -4.2760     2.2460    -0.5300 c5         1 DWN       0.102100
     23 O3X         -5.2930     3.1460    -0.9000 oh         1 DWN      -0.594800
     24 C2X         -4.2670     0.9380    -1.3210 c5         1 DWN      -0.148400
     25 C1X         -2.7890     0.6360    -1.5730 c5         1 DWN       0.336500
     26 N11         -2.2130    -0.4910    -0.8330 n          1 DWN      -0.379000
     27 C21         -2.3680    -0.5960     0.5310 c          1 DWN       0.864500
     28 O21         -3.0350     0.1670     1.1930 o          1 DWN      -0.616500
     29 N31         -1.7580    -1.6910     1.0870 ns         1 DWN      -0.573500
     30 C61         -1.5050    -1.4350    -1.5280 cc         1 DWN       0.081600
     31 C51         -0.9480    -2.5280    -0.9800 cd         1 DWN      -0.295400
     32 C5A         -0.2530    -3.5780    -1.7810 c3         1 DWN      -0.004900
     33 C41         -1.0620    -2.6980     0.4530 c          1 DWN       0.756700
     34 O41         -0.6210    -3.6440     1.0830 o          1 DWN      -0.662500
     35 H1           2.0570    -3.2640     1.6430 h1         1 DWN       0.094700
     36 H2           3.4550    -1.5950     2.8860 hc         1 DWN       0.044033
     37 H3           4.3610    -3.0070     2.3440 hc         1 DWN       0.044033
     38 H4           4.5510    -1.4680     1.5100 hc         1 DWN       0.044033
     39 H5           4.4940    -1.8010    -0.9970 h1         1 DWN       0.072700
     40 H6           4.4540    -3.6220    -2.4880 hn         1 DWN       0.334800
     41 H7           2.9090    -3.3570    -2.8860 hn         1 DWN       0.334800
     42 H9           2.9290    -0.3550    -2.1150 hc         1 DWN       0.062700
     43 H10          1.5880    -1.4740    -1.8530 hc         1 DWN       0.062700
     44 H11          3.2000    -0.0660     0.3220 h2         1 DWN       0.042700
     45 H14         -1.9690     2.8770     1.0240 h1         1 DWN       0.047700
     46 H15         -3.0210     4.2680     0.7160 h1         1 DWN       0.047700
     47 H16         -3.0750     3.5610    -1.7200 h1         1 DWN       0.059700
     48 H17         -4.3240     2.0360     0.5400 h1         1 DWN       0.082700
     49 H18         -6.1080     2.8680    -0.4730 ho         1 DWN       0.385000
     50 H19         -4.8040     0.1240    -0.8380 hc         1 DWN       0.046700
     51 H20         -4.7410     1.1150    -2.2900 hc         1 DWN       0.046700
     52 H21         -2.6500     0.3540    -2.6190 h2         1 DWN       0.038700
     53 H22         -1.8490    -1.7640     2.0920 hn         1 DWN       0.342500
     54 H23         -1.4380    -1.2590    -2.5930 h4         1 DWN       0.135000
     55 H24          0.7290    -3.8140    -1.3690 hc         1 DWN       0.028367
     56 H25         -0.8190    -4.5110    -1.7930 hc         1 DWN       0.028367
     57 H26         -0.1200    -3.2580    -2.8140 hc         1 DWN       0.028367
@<TRIPOS>BOND
     1     1     2 2   
     2     2     3 1   
     3     2     6 1   
     4     3     4 1   
     5     3     5 1   
     6     3    35 1   
     7     4    36 1   
     8     4    37 1   
     9     4    38 1   
    10     5     9 1   
    11     6     7 1   
    12     6     8 1   
    13     6    39 1   
    14     7    40 1   
    15     7    41 1   
    16     8     9 1   
    17     8    42 1   
    18     8    43 1   
    19     9    10 1   
    20     9    44 1   
    21    10    11 1   
    22    11    12 1   
    23    11    13 1   
    24    11    14 1   
    25    14    15 1   
    26    15    16 1   
    27    15    17 1   
    28    15    18 1   
    29    18    19 1   
    30    19    20 1   
    31    19    45 1   
    32    19    46 1   
    33    20    21 1   
    34    20    22 1   
    35    20    47 1   
    36    21    25 1   
    37    22    23 1   
    38    22    24 1   
    39    22    48 1   
    40    23    49 1   
    41    24    25 1   
    42    24    50 1   
    43    24    51 1   
    44    25    26 1   
    45    25    52 1   
    46    26    27 1   
    47    26    30 1   
    48    27    28 2   
    49    27    29 1   
    50    29    33 1   
    51    29    53 1   
    52    30    31 2   
    53    30    54 1   
    54    31    32 1   
    55    31    33 1   
    56    32    55 1   
    57    32    56 1   
    58    32    57 1   
    59    33    34 2   
@<TRIPOS>SUBSTRUCTURE
     1 DWN         1 TEMP              0 ****  ****    0 ROOT
