@<TRIPOS>MOLECULE
DWN
   57    59     1     0     0
SMALL
No Charge or Current Charge


@<TRIPOS>ATOM
      1 O4           3.2350    -3.6710    -0.7270 o          1 DWN      -0.571100
      2 C4           2.9840    -2.4730    -0.6000 c          1 DWN       0.519100
      3 C5           1.5390    -1.9330    -0.4530 c6         1 DWN       0.101300
      4 C6           1.2260    -1.5490     1.0250 c3         1 DWN      -0.117100
      5 O5           1.3050    -0.7910    -1.3220 os         1 DWN      -0.470000
      6 C3           4.0960    -1.3610    -0.6090 c6         1 DWN       0.053500
      7 N3           5.4310    -1.8410    -1.1180 n8         1 DWN      -0.992200
      8 C2           3.6490    -0.0820    -1.3770 c6         1 DWN      -0.101400
      9 C1           2.1760     0.3380    -1.0900 c6         1 DWN       0.448300
     10 O1           1.7700     1.3730    -1.9750 os         1 DWN      -0.553400
     11 P2           2.0310     2.8880    -1.5030 p5         1 DWN       1.478800
     12 O3P          3.2310     2.9700    -0.6210 o          1 DWN      -0.849000
     13 O4P          2.1500     3.7740    -2.6990 o          1 DWN      -0.849000
     14 OPP          0.6430     3.0860    -0.7900 os         1 DWN      -0.711800
     15 P            0.6800     4.0220     0.4710 p5         1 DWN       1.469800
     16 O1P          1.4160     5.3020     0.2500 o          1 DWN      -0.848500
     17 O2P          1.0970     3.3170     1.7190 o          1 DWN      -0.848500
     18 O5X         -0.8970     4.3680     0.5290 os         1 DWN      -0.600400
     19 C5X         -1.8850     3.4270     0.9980 c3         1 DWN       0.224600
     20 C4X         -2.1870     2.3480    -0.0820 c5         1 DWN       0.158300
     21 O4X         -1.5320     1.1040     0.2280 os         1 DWN      -0.396000
     22 C3X         -3.6730     1.8890    -0.1620 c5         1 DWN       0.125300
     23 O3X         -4.5420     2.8540    -0.7670 oh         1 DWN      -0.717000
     24 C2X         -3.5190     0.6190    -1.0460 c5         1 DWN      -0.148400
     25 C1X         -2.0800     0.1340    -0.6790 c5         1 DWN       0.359700
     26 N11         -2.1910    -1.2310    -0.1030 n          1 DWN      -0.312000
     27 C21         -2.5480    -1.4180     1.2500 c          1 DWN       0.655000
     28 O21         -2.8920    -0.5250     2.0070 o          1 DWN      -0.541000
     29 N31         -2.5190    -2.7010     1.6940 ns         1 DWN      -0.439500
     30 C61         -1.8710    -2.3150    -0.9210 cc         1 DWN       0.031600
     31 C51         -1.8600    -3.5950    -0.4120 cd         1 DWN      -0.295400
     32 C5A         -1.5010    -4.8140    -1.2310 c3         1 DWN      -0.004900
     33 C41         -2.2040    -3.8280     1.0100 c          1 DWN       0.614200
     34 O41         -2.2180    -4.9220     1.5520 o          1 DWN      -0.587000
     35 H1           0.8660    -2.7450    -0.7600 h1         1 DWN       0.094700
     36 H2           0.2850    -0.9950     1.1040 hc         1 DWN       0.044033
     37 H3           1.1300    -2.4500     1.6440 hc         1 DWN       0.044033
     38 H4           2.0130    -0.9330     1.4730 hc         1 DWN       0.044033
     39 H5           4.2260    -1.0850     0.4490 h1         1 DWN       0.072700
     40 H6           5.6960    -2.6900    -0.6020 hn         1 DWN       0.390000
     41 H7           5.3200    -2.1840    -2.0810 hn         1 DWN       0.390000
     42 H9           4.3380     0.7350    -1.1360 hc         1 DWN       0.062700
     43 H10          3.7470    -0.2550    -2.4570 hc         1 DWN       0.062700
     44 H11          2.0660     0.6760    -0.0490 h2         1 DWN       0.042700
     45 H14         -1.5640     2.9370     1.9270 h1         1 DWN       0.047700
     46 H15         -2.8150     3.9660     1.2220 h1         1 DWN       0.047700
     47 H16         -1.8490     2.7060    -1.0640 h1         1 DWN       0.059700
     48 H17         -4.0300     1.6200     0.8430 h1         1 DWN       0.082700
     49 H18         -5.4270     2.4300    -0.8560 ho         1 DWN       0.484000
     50 H19         -4.3000    -0.1230    -0.8420 hc         1 DWN       0.046700
     51 H20         -3.5720     0.8560    -2.1150 hc         1 DWN       0.046700
     52 H21         -1.4510     0.0710    -1.5750 h2         1 DWN       0.038700
     53 H22         -2.7710    -2.8310     2.6590 hn         1 DWN       0.342500
     54 H23         -1.6280    -2.0400    -1.9440 h4         1 DWN       0.185000
     55 H24         -0.6240    -5.3240    -0.8140 hc         1 DWN       0.028367
     56 H25         -2.3290    -5.5310    -1.2570 hc         1 DWN       0.028367
     57 H26         -1.2640    -4.5440    -2.2670 hc         1 DWN       0.028367
@<TRIPOS>BOND
     1     1     2 2   
     2     2     3 1   
     3     2     6 1   
     4     3     4 1   
     5     3     5 1   
     6     3    35 1   
     7     4    36 1   
     8     4    37 1   
     9     4    38 1   
    10     5     9 1   
    11     6     7 1   
    12     6     8 1   
    13     6    39 1   
    14     7    40 1   
    15     7    41 1   
    16     8     9 1   
    17     8    42 1   
    18     8    43 1   
    19     9    10 1   
    20     9    44 1   
    21    10    11 1   
    22    11    12 1   
    23    11    13 1   
    24    11    14 1   
    25    14    15 1   
    26    15    16 1   
    27    15    17 1   
    28    15    18 1   
    29    18    19 1   
    30    19    20 1   
    31    19    45 1   
    32    19    46 1   
    33    20    21 1   
    34    20    22 1   
    35    20    47 1   
    36    21    25 1   
    37    22    23 1   
    38    22    24 1   
    39    22    48 1   
    40    23    49 1   
    41    24    25 1   
    42    24    50 1   
    43    24    51 1   
    44    25    26 1   
    45    25    52 1   
    46    26    27 1   
    47    26    30 1   
    48    27    28 2   
    49    27    29 1   
    50    29    33 1   
    51    29    53 1   
    52    30    31 2   
    53    30    54 1   
    54    31    32 1   
    55    31    33 1   
    56    32    55 1   
    57    32    56 1   
    58    32    57 1   
    59    33    34 2   
@<TRIPOS>SUBSTRUCTURE
     1 DWN         1 TEMP              0 ****  ****    0 ROOT
