@<TRIPOS>MOLECULE
DWP
   48    51     1     0     0
SMALL
No Charge or Current Charge


@<TRIPOS>ATOM
      1 C4           2.5730     2.3670     0.8440 c6         1 DWP      -0.070400
      2 C5           1.1850     3.0050     0.6170 c6         1 DWP      -0.010100
      3 C6           0.0510     1.9940     0.4500 ca         1 DWP      -0.230300
      4 C7          -1.2860     2.4320     0.4380 ca         1 DWP       0.145900
      5 C13         -6.4270     0.5480    -0.9300 ca         1 DWP      -0.081500
      6 C15         -6.5810    -1.6470     0.1020 ca         1 DWP      -0.081500
      7 C20          4.2450     0.5580    -0.0370 c6         1 DWP      -0.154700
      8 C22          5.3290     1.6200    -0.4260 c3         1 DWP      -0.082100
      9 C24          3.2730    -1.7630    -0.8760 c6         1 DWP      -0.114600
     10 C25          3.5740    -2.7890     0.1350 c1         1 DWP       0.306900
     11 C14         -7.2020    -0.5360    -0.4900 ca         1 DWP      -0.140000
     12 C12         -5.0290     0.5240    -0.7710 ca         1 DWP      -0.154500
     13 C16         -5.1830    -1.6680     0.2580 ca         1 DWP      -0.154500
     14 C11         -4.3990    -0.5810    -0.1640 ca         1 DWP       0.317000
     15 C18          0.2820     0.6110     0.2780 ca         1 DWP       0.175300
     16 C9          -1.9910     0.2790     0.1280 ca         1 DWP       0.388900
     17 C23          4.4090    -0.7340    -0.8920 c          1 DWP       0.584100
     18 C27          1.8440    -1.1630    -0.7150 c6         1 DWP      -0.047400
     19 C3           2.7710     1.1020    -0.0430 c6         1 DWP      -0.045700
     20 C2           1.7080    -0.0010     0.3270 c6         1 DWP      -0.093300
     21 C1           1.8740    -0.5470     1.7910 c3         1 DWP      -0.086100
     22 N26          3.8000    -3.6240     0.9130 n1         1 DWP      -0.451000
     23 N8          -2.3110     1.5760     0.2820 nb         1 DWP      -0.221000
     24 N17         -0.7550    -0.2450     0.1340 nb         1 DWP      -0.257000
     25 N10         -3.0110    -0.6550     0.0010 nu         1 DWP      -0.928900
     26 O28          5.4180    -0.9480    -1.5560 o          1 DWP      -0.492100
     27 H1           3.3220     3.1350     0.6190 hc         1 DWP       0.051200
     28 H2           2.7080     2.1210     1.9050 hc         1 DWP       0.051200
     29 H3           0.9590     3.6910     1.4450 hc         1 DWP       0.051200
     30 H4           1.2260     3.6290    -0.2870 hc         1 DWP       0.051200
     31 H5          -1.5400     3.4840     0.5580 h4         1 DWP       0.023100
     32 H7          -7.1800    -2.4910     0.4390 ha         1 DWP       0.112000
     33 H8           4.4620     0.2510     0.9930 hc         1 DWP       0.077700
     34 H9           5.3700     2.4490     0.2880 hc         1 DWP       0.045033
     35 H10          6.3360     1.1840    -0.4330 hc         1 DWP       0.045033
     36 H11          5.1390     2.0380    -1.4220 hc         1 DWP       0.045033
     37 H12          3.3360    -2.3140    -1.8230 hc         1 DWP       0.099700
     38 H13         -8.2830    -0.5180    -0.6130 ha         1 DWP       0.115000
     39 H14         -4.4450     1.3590    -1.1410 ha         1 DWP       0.128500
     40 H15         -4.7110    -2.5320     0.7190 ha         1 DWP       0.128500
     41 H16          1.5330    -0.7750    -1.6960 hc         1 DWP       0.068700
     42 H17          1.1330    -1.9730    -0.4940 hc         1 DWP       0.068700
     43 H18          2.5650     1.4160    -1.0780 hc         1 DWP       0.056700
     44 H19          2.8870    -0.8890     2.0200 hc         1 DWP       0.046700
     45 H20          1.6190     0.2140     2.5370 hc         1 DWP       0.046700
     46 H21          1.2030    -1.3950     1.9710 hc         1 DWP       0.046700
     47 H22         -2.6700    -1.6070     0.1280 hn         1 DWP       0.508000
     48 H6          -6.9060     1.4050    -1.4000 ha         1 DWP       0.112000
@<TRIPOS>BOND
     1     1     2 1   
     2     1    19 1   
     3     1    27 1   
     4     1    28 1   
     5     2     3 1   
     6     2    29 1   
     7     2    30 1   
     8     3     4 ar  
     9     3    15 ar  
    10     4    23 ar  
    11     4    31 1   
    12     5    11 ar  
    13     5    12 ar  
    14     5    48 1   
    15     6    11 ar  
    16     6    13 ar  
    17     6    32 1   
    18     7     8 1   
    19     7    17 1   
    20     7    19 1   
    21     7    33 1   
    22     8    34 1   
    23     8    35 1   
    24     8    36 1   
    25     9    10 1   
    26     9    17 1   
    27     9    18 1   
    28     9    37 1   
    29    10    22 3   
    30    11    38 1   
    31    12    14 ar  
    32    12    39 1   
    33    13    14 ar  
    34    13    40 1   
    35    14    25 1   
    36    15    20 1   
    37    15    24 ar  
    38    16    23 ar  
    39    16    24 ar  
    40    16    25 1   
    41    17    26 2   
    42    18    20 1   
    43    18    41 1   
    44    18    42 1   
    45    19    20 1   
    46    19    43 1   
    47    20    21 1   
    48    21    44 1   
    49    21    45 1   
    50    21    46 1   
    51    25    47 1   
@<TRIPOS>SUBSTRUCTURE
     1 DWP         1 TEMP              0 ****  ****    0 ROOT
