@<TRIPOS>MOLECULE
DWP
   48    51     1     0     0
SMALL
abcg2


@<TRIPOS>ATOM
      1 C4           2.5610     2.3450     0.7190 c6         1 DWP      -0.070400
      2 C5           1.2200     2.9870     0.3850 c6         1 DWP      -0.010100
      3 C6           0.0990     1.9940     0.2990 ca         1 DWP      -0.230300
      4 C7          -1.2260     2.3950     0.2400 ca         1 DWP       0.145900
      5 C13         -6.4060     0.6370    -0.3090 ca         1 DWP      -0.081500
      6 C15         -6.4020    -1.7490    -0.4280 ca         1 DWP      -0.081500
      7 C20          4.1740     0.4850    -0.0190 c6         1 DWP      -0.154700
      8 C22          5.2470     1.5070    -0.3660 c3         1 DWP      -0.082100
      9 C24          3.1960    -1.8010    -0.6860 c6         1 DWP      -0.114600
     10 C25          3.6030    -2.5890     0.4690 c1         1 DWP       0.306900
     11 C14         -7.1080    -0.5520    -0.4360 ca         1 DWP      -0.140000
     12 C12         -5.0240     0.6530    -0.1750 ca         1 DWP      -0.154500
     13 C16         -5.0250    -1.7500    -0.2960 ca         1 DWP      -0.154500
     14 C11         -4.3130    -0.5500    -0.1680 ca         1 DWP       0.317000
     15 C18          0.2970     0.6120     0.2400 ca         1 DWP       0.175300
     16 C9          -1.9490     0.2730     0.0760 ca         1 DWP       0.388900
     17 C23          4.2360    -0.7030    -0.9450 c          1 DWP       0.584100
     18 C27          1.7800    -1.2110    -0.5630 c6         1 DWP      -0.047400
     19 C3           2.7350     1.0520    -0.0670 c6         1 DWP      -0.045700
     20 C2           1.6830     0.0040     0.3680 c6         1 DWP      -0.093300
     21 C1           1.8150    -0.4050     1.8470 c3         1 DWP      -0.086100
     22 N26          3.9510    -3.2340     1.3560 n1         1 DWP      -0.451000
     23 N8          -2.2520     1.5640     0.1310 nb         1 DWP      -0.221000
     24 N17         -0.7170    -0.2300     0.1350 nb         1 DWP      -0.257000
     25 N10         -2.9330    -0.6640    -0.0460 nu         1 DWP      -0.928900
     26 O28          5.0070    -0.8060    -1.8630 o          1 DWP      -0.492100
     27 H1           3.3490     3.0580     0.4780 hc         1 DWP       0.051200
     28 H2           2.6440     2.1510     1.7910 hc         1 DWP       0.051200
     29 H3           0.9800     3.7580     1.1200 hc         1 DWP       0.051200
     30 H4           1.3050     3.5040    -0.5760 hc         1 DWP       0.051200
     31 H5          -1.4720     3.4520     0.2860 h4         1 DWP       0.023100
     32 H7          -6.9240    -2.6920    -0.5270 ha         1 DWP       0.112000
     33 H8           4.3690     0.1120     0.9940 hc         1 DWP       0.077700
     34 H9           5.3160     2.2760     0.4000 hc         1 DWP       0.045033
     35 H10          6.2270     1.0360    -0.4340 hc         1 DWP       0.045033
     36 H11          5.0430     1.9970    -1.3190 hc         1 DWP       0.045033
     37 H12          3.2130    -2.4850    -1.5380 hc         1 DWP       0.099700
     38 H13         -8.1850    -0.5490    -0.5380 ha         1 DWP       0.115000
     39 H14         -4.5040     1.5920    -0.0740 ha         1 DWP       0.128500
     40 H15         -4.4880    -2.6920    -0.2910 ha         1 DWP       0.128500
     41 H16          1.4890    -0.9110    -1.5730 hc         1 DWP       0.068700
     42 H17          1.0900    -1.9970    -0.2610 hc         1 DWP       0.068700
     43 H18          2.5300     1.2890    -1.1220 hc         1 DWP       0.056700
     44 H19          2.8220    -0.7110     2.1210 hc         1 DWP       0.046700
     45 H20          1.5400     0.4110     2.5150 hc         1 DWP       0.046700
     46 H21          1.1450    -1.2380     2.0630 hc         1 DWP       0.046700
     47 H22         -2.5750    -1.6070    -0.0660 hn         1 DWP       0.508000
     48 H6          -6.9390     1.5800    -0.3130 ha         1 DWP       0.112000
@<TRIPOS>BOND
     1     1     2 1   
     2     1    19 1   
     3     1    27 1   
     4     1    28 1   
     5     2     3 1   
     6     2    29 1   
     7     2    30 1   
     8     3     4 ar  
     9     3    15 ar  
    10     4    23 ar  
    11     4    31 1   
    12     5    11 ar  
    13     5    12 ar  
    14     5    48 1   
    15     6    11 ar  
    16     6    13 ar  
    17     6    32 1   
    18     7     8 1   
    19     7    17 1   
    20     7    19 1   
    21     7    33 1   
    22     8    34 1   
    23     8    35 1   
    24     8    36 1   
    25     9    10 1   
    26     9    17 1   
    27     9    18 1   
    28     9    37 1   
    29    10    22 3   
    30    11    38 1   
    31    12    14 ar  
    32    12    39 1   
    33    13    14 ar  
    34    13    40 1   
    35    14    25 1   
    36    15    20 1   
    37    15    24 ar  
    38    16    23 ar  
    39    16    24 ar  
    40    16    25 1   
    41    17    26 2   
    42    18    20 1   
    43    18    41 1   
    44    18    42 1   
    45    19    20 1   
    46    19    43 1   
    47    20    21 1   
    48    21    44 1   
    49    21    45 1   
    50    21    46 1   
    51    25    47 1   
@<TRIPOS>SUBSTRUCTURE
     1 DWP         1 TEMP              0 ****  ****    0 ROOT
