@<TRIPOS>MOLECULE
DWS
   57    61     1     0     0
SMALL
bcc


@<TRIPOS>ATOM
      1 C4           2.2230     3.7590     0.8670 ca         1 DWS      -0.094000
      2 C5           3.1920     2.7880     1.0580 ca         1 DWS      -0.165000
      3 C6           2.9470     1.4660     0.7150 ca         1 DWS      -0.159000
      4 C7           1.7210     1.0670     0.1720 ca         1 DWS      -0.112300
      5 C8           1.4210    -0.3920    -0.2230 c6         1 DWS      -0.031000
      6 C10          2.2110    -0.0100    -2.5720 c6         1 DWS      -0.071400
      7 C13         -1.6050    -0.3060    -2.4700 ca         1 DWS       0.476200
      8 C15         -2.2300    -0.6660    -0.3410 ca         1 DWS       0.917900
      9 C17         -0.0030    -0.4510    -0.7670 ca         1 DWS       0.514600
     10 C20         -5.2010    -1.2850     1.7730 ca         1 DWS      -0.175000
     11 C21         -6.5770    -1.4110     1.8270 ca         1 DWS      -0.102000
     12 C22         -7.3450    -1.2530     0.6790 ca         1 DWS      -0.173000
     13 C24         -5.3240    -0.8360    -0.5880 ca         1 DWS      -0.175000
     14 C26          1.4870    -1.3490     0.9840 c6         1 DWS      -0.041400
     15 C34          2.8850    -2.7280     2.4550 c1         1 DWS       0.233700
     16 C23         -6.7050    -0.9670    -0.5170 ca         1 DWS      -0.102000
     17 C36          0.7650     2.0690    -0.0040 ca         1 DWS      -0.095000
     18 C3           0.9940     3.4010     0.3290 ca         1 DWS      -0.132600
     19 C12         -0.2630    -0.2760    -2.1270 ca         1 DWS      -0.346900
     20 C19         -4.5510    -0.9960     0.5650 ca         1 DWS       0.198600
     21 C29          3.7490    -2.1970     0.2310 c          1 DWS       0.583100
     22 C2          -0.0950     4.4440     0.0980 c          1 DWS       0.922200
     23 C11          0.8080    -0.1000    -3.1640 c6         1 DWS      -0.004100
     24 C27          2.9200    -1.7130     1.4120 c6         1 DWS      -0.117600
     25 C30          3.7800    -1.2640    -0.9570 c6         1 DWS      -0.154700
     26 C9           2.3270    -0.9370    -1.3670 c6         1 DWS      -0.043700
     27 C32          4.5900    -1.8700    -2.0950 c3         1 DWS      -0.080100
     28 N35          2.8310    -3.5200     3.2880 n1         1 DWS      -0.383800
     29 N14         -2.5910    -0.4920    -1.6060 nb         1 DWS      -0.751000
     30 N16         -0.9750    -0.6430     0.1070 nb         1 DWS      -0.771000
     31 N18         -3.1670    -0.8870     0.6240 nu         1 DWS      -0.734300
     32 O37          0.1900     5.6190     0.3970 o          1 DWS      -0.820300
     33 O33          4.3110    -3.2620     0.2640 o          1 DWS      -0.514100
     34 O1          -1.1730     4.0310    -0.3720 o          1 DWS      -0.820300
     35 H1           2.4220     4.7890     1.1300 ha         1 DWS       0.149000
     36 H2           4.1550     3.0540     1.4740 ha         1 DWS       0.106000
     37 H3           3.7550     0.7710     0.8740 ha         1 DWS       0.091000
     38 H4           2.9260    -0.2740    -3.3490 hc         1 DWS       0.055200
     39 H5           2.4460     1.0130    -2.2710 hc         1 DWS       0.055200
     40 H6          -1.9010    -0.1690    -3.5060 h4         1 DWS       0.016100
     41 H9          -8.4220    -1.3500     0.7190 ha         1 DWS       0.123000
     42 H10         -4.8540    -0.6100    -1.5310 ha         1 DWS       0.148500
     43 H11          0.9540    -0.9330     1.8370 hc         1 DWS       0.067700
     44 H12          0.9800    -2.2770     0.7130 hc         1 DWS       0.067700
     45 H13         -7.2860    -0.8380    -1.4220 ha         1 DWS       0.122000
     46 H14         -0.2070     1.8460    -0.4170 ha         1 DWS       0.152000
     47 H15          0.5990     0.7810    -3.7760 hc         1 DWS       0.045200
     48 H16          0.7670    -0.9550    -3.8450 hc         1 DWS       0.045200
     49 H17          3.4180    -0.8410     1.8460 hc         1 DWS       0.106700
     50 H18          4.2820    -0.3450    -0.6340 hc         1 DWS       0.084700
     51 H19          1.8870    -1.9040    -1.6530 hc         1 DWS       0.044700
     52 H20          4.0970    -2.7500    -2.5100 hc         1 DWS       0.039367
     53 H21          4.7280    -1.1520    -2.9000 hc         1 DWS       0.039367
     54 H22          5.5820    -2.1650    -1.7560 hc         1 DWS       0.039367
     55 H23         -2.7650    -1.0120     1.5410 hn         1 DWS       0.453800
     56 H7          -4.6150    -1.4150     2.6760 ha         1 DWS       0.148500
     57 H8          -7.0500    -1.6370     2.7740 ha         1 DWS       0.122000
@<TRIPOS>BOND
     1     1     2 ar  
     2     1    18 ar  
     3     1    35 1   
     4     2     3 ar  
     5     2    36 1   
     6     3     4 ar  
     7     3    37 1   
     8     4     5 1   
     9     4    17 ar  
    10     5     9 1   
    11     5    14 1   
    12     5    26 1   
    13     6    23 1   
    14     6    26 1   
    15     6    38 1   
    16     6    39 1   
    17     7    19 ar  
    18     7    29 ar  
    19     7    40 1   
    20     8    29 ar  
    21     8    30 ar  
    22     8    31 1   
    23     9    19 ar  
    24     9    30 ar  
    25    10    11 ar  
    26    10    20 ar  
    27    10    56 1   
    28    11    12 ar  
    29    11    57 1   
    30    12    16 ar  
    31    12    41 1   
    32    13    16 ar  
    33    13    20 ar  
    34    13    42 1   
    35    14    24 1   
    36    14    43 1   
    37    14    44 1   
    38    15    24 1   
    39    15    28 3   
    40    16    45 1   
    41    17    18 ar  
    42    17    46 1   
    43    18    22 1   
    44    19    23 1   
    45    20    31 1   
    46    21    24 1   
    47    21    25 1   
    48    21    33 2   
    49    22    32 1   
    50    22    34 1   
    51    23    47 1   
    52    23    48 1   
    53    24    49 1   
    54    25    26 1   
    55    25    27 1   
    56    25    50 1   
    57    26    51 1   
    58    27    52 1   
    59    27    53 1   
    60    27    54 1   
    61    31    55 1   
@<TRIPOS>SUBSTRUCTURE
     1 DWS         1 TEMP              0 ****  ****    0 ROOT
