@<TRIPOS>MOLECULE
DWS
   57    61     1     0     0
SMALL
No Charge or Current Charge


@<TRIPOS>ATOM
      1 C4           1.8530     3.5850     1.1670 ca         1 DWS      -0.076000
      2 C5           2.3200     2.5240     1.9520 ca         1 DWS      -0.147000
      3 C6           2.1750     1.1980     1.5180 ca         1 DWS      -0.141000
      4 C7           1.5720     0.8990     0.2720 ca         1 DWS      -0.112300
      5 C8           1.3790    -0.5700    -0.2550 c6         1 DWS      -0.031000
      6 C10          2.0500    -0.2410    -2.7530 c6         1 DWS      -0.071400
      7 C13         -1.7750    -0.7740    -2.4790 ca         1 DWS       0.147900
      8 C15         -2.3240    -0.7760    -0.2580 ca         1 DWS       0.391900
      9 C17         -0.0810    -0.6880    -0.7690 ca         1 DWS       0.186300
     10 C20         -5.3260    -1.4190     1.8800 ca         1 DWS      -0.157000
     11 C21         -6.7290    -1.3950     1.9750 ca         1 DWS      -0.084000
     12 C22         -7.4860    -0.7460     0.9870 ca         1 DWS      -0.155000
     13 C24         -5.4380    -0.1450    -0.1820 ca         1 DWS      -0.157000
     14 C26          1.6080    -1.6640     0.8540 c6         1 DWS      -0.041400
     15 C34          3.4610    -3.3670     0.9840 c1         1 DWS       0.322900
     16 C23         -6.8410    -0.1170    -0.0910 ca         1 DWS      -0.084000
     17 C36          1.0790     1.9880    -0.4910 ca         1 DWS      -0.077000
     18 C3           1.2170     3.3310    -0.0660 ca         1 DWS      -0.132600
     19 C12         -0.4110    -0.6970    -2.1440 ca         1 DWS      -0.216300
     20 C19         -4.6710    -0.8080     0.7970 ca         1 DWS       0.337000
     21 C29          4.1450    -1.0850     0.5060 c          1 DWS       0.583100
     22 C2           0.6870     4.4760    -0.9150 c          1 DWS       0.711600
     23 C11          0.6450    -0.6470    -3.2480 c6         1 DWS      -0.004100
     24 C27          3.1070    -1.9590     1.2230 c6         1 DWS      -0.117600
     25 C30          3.8680    -0.6870    -0.9630 c6         1 DWS      -0.154700
     26 C9           2.3900    -0.9350    -1.4060 c6         1 DWS      -0.043700
     27 C32          4.8980    -1.4370    -1.8680 c3         1 DWS      -0.080100
     28 N35          3.7140    -4.4840     0.7760 n1         1 DWS      -0.473000
     29 N14         -2.7350    -0.8190    -1.5370 nb         1 DWS      -0.225000
     30 N16         -1.0530    -0.7200     0.1720 nb         1 DWS      -0.245000
     31 N18         -3.2730    -0.8480     0.7540 nu         1 DWS      -0.927900
     32 O37          0.7960     5.6190    -0.4910 o          1 DWS      -0.715000
     33 O33          5.1610    -0.7120     1.0810 o          1 DWS      -0.514100
     34 O1           0.1710     4.2190    -1.9940 o          1 DWS      -0.715000
     35 H1           1.9770     4.6050     1.5260 ha         1 DWS       0.131000
     36 H2           2.7940     2.7300     2.9090 ha         1 DWS       0.088000
     37 H3           2.5360     0.4230     2.1810 ha         1 DWS       0.073000
     38 H4           2.7740    -0.5220    -3.5270 hc         1 DWS       0.055200
     39 H5           2.1330     0.8480    -2.6650 hc         1 DWS       0.055200
     40 H6          -2.1060    -0.7990    -3.5160 h4         1 DWS       0.016100
     41 H9          -8.5710    -0.7240     1.0590 ha         1 DWS       0.105000
     42 H10         -4.9560     0.3680    -1.0070 ha         1 DWS       0.130500
     43 H11          1.0640    -1.3830     1.7670 hc         1 DWS       0.067700
     44 H12          1.1180    -2.5940     0.5270 hc         1 DWS       0.067700
     45 H13         -7.4260     0.3960    -0.8510 ha         1 DWS       0.104000
     46 H14          0.5650     1.7990    -1.4280 ha         1 DWS       0.134000
     47 H15          0.3270     0.0410    -4.0440 hc         1 DWS       0.045200
     48 H16          0.7060    -1.6400    -3.7140 hc         1 DWS       0.045200
     49 H17          3.2670    -1.8260     2.3000 hc         1 DWS       0.106700
     50 H18          4.1220     0.3780    -1.0470 hc         1 DWS       0.084700
     51 H19          2.2860    -2.0140    -1.5950 hc         1 DWS       0.044700
     52 H20          4.7210    -2.5200    -1.8650 hc         1 DWS       0.039367
     53 H21          4.8570    -1.0950    -2.9080 hc         1 DWS       0.039367
     54 H22          5.9260    -1.2710    -1.5230 hc         1 DWS       0.039367
     55 H23         -2.8470    -1.0380     1.6600 hn         1 DWS       0.509000
     56 H7          -4.7480    -1.9250     2.6490 ha         1 DWS       0.130500
     57 H8          -7.2270    -1.8770     2.8140 ha         1 DWS       0.104000
@<TRIPOS>BOND
     1     1     2 ar  
     2     1    18 ar  
     3     1    35 1   
     4     2     3 ar  
     5     2    36 1   
     6     3     4 ar  
     7     3    37 1   
     8     4     5 1   
     9     4    17 ar  
    10     5     9 1   
    11     5    14 1   
    12     5    26 1   
    13     6    23 1   
    14     6    26 1   
    15     6    38 1   
    16     6    39 1   
    17     7    19 ar  
    18     7    29 ar  
    19     7    40 1   
    20     8    29 ar  
    21     8    30 ar  
    22     8    31 1   
    23     9    19 ar  
    24     9    30 ar  
    25    10    11 ar  
    26    10    20 ar  
    27    10    56 1   
    28    11    12 ar  
    29    11    57 1   
    30    12    16 ar  
    31    12    41 1   
    32    13    16 ar  
    33    13    20 ar  
    34    13    42 1   
    35    14    24 1   
    36    14    43 1   
    37    14    44 1   
    38    15    24 1   
    39    15    28 3   
    40    16    45 1   
    41    17    18 ar  
    42    17    46 1   
    43    18    22 1   
    44    19    23 1   
    45    20    31 1   
    46    21    24 1   
    47    21    25 1   
    48    21    33 2   
    49    22    32 1   
    50    22    34 1   
    51    23    47 1   
    52    23    48 1   
    53    24    49 1   
    54    25    26 1   
    55    25    27 1   
    56    25    50 1   
    57    26    51 1   
    58    27    52 1   
    59    27    53 1   
    60    27    54 1   
    61    31    55 1   
@<TRIPOS>SUBSTRUCTURE
     1 DWS         1 TEMP              0 ****  ****    0 ROOT
