@<TRIPOS>MOLECULE
DWT
   57    61     1     0     0
SMALL
abcg2


@<TRIPOS>ATOM
      1 FBI         -8.1390    -0.6800    -0.5320 f          1 DWT      -0.114333
      2 CBH         -7.0470    -0.0010    -0.8900 c3         1 DWT       0.356300
      3 FBJ         -6.5460    -0.6070    -1.9760 f          1 DWT      -0.114333
      4 FBK         -7.4540     1.2140    -1.2880 f          1 DWT      -0.114333
      5 CBF         -6.0350     0.0920     0.2090 ca         1 DWT      -0.169300
      6 CBD         -4.8060     0.6680    -0.0810 ca         1 DWT      -0.118000
      7 CBG         -6.3140    -0.3680     1.4880 ca         1 DWT      -0.084000
      8 CBE         -5.3450    -0.2300     2.4720 ca         1 DWT      -0.094000
      9 CBC         -4.1170     0.3500     2.2010 ca         1 DWT      -0.093000
     10 CBB         -3.8370     0.8010     0.9090 ca         1 DWT      -0.022000
     11 NAZ         -2.6390     1.4240     0.5510 ns         1 DWT      -0.147000
     12 CAY         -1.4160     1.2500     1.1200 c          1 DWT       0.622700
     13 OBA         -1.2070     0.4860     2.0450 o          1 DWT      -0.567100
     14 CAV         -0.3210     2.0610     0.5120 ca         1 DWT      -0.142600
     15 CAT          0.9760     1.5750     0.6250 ca         1 DWT      -0.051000
     16 CAW         -0.5430     3.2850    -0.1120 ca         1 DWT      -0.098000
     17 CAU          0.5290     3.9970    -0.6240 ca         1 DWT      -0.100000
     18 CAS          1.8280     3.5080    -0.5610 ca         1 DWT      -0.089300
     19 CAX          2.9670     4.2820    -1.1550 c3         1 DWT      -0.052800
     20 CAR          2.0400     2.2740     0.0700 ca         1 DWT       0.290000
     21 NAC          3.3570     1.7950     0.1560 nu         1 DWT      -0.942900
     22 C6           3.7790     0.5180     0.0240 ca         1 DWT       0.460900
     23 N1           2.9220    -0.4510    -0.2050 nb         1 DWT      -0.297000
     24 C5           5.1570     0.2020     0.1170 ca         1 DWT      -0.298000
     25 CAH          6.3670     0.8480     0.3280 cc         1 DWT      -0.155100
     26 NAI          7.2950    -0.1080     0.2800 na         1 DWT       0.150500
     27 CAK          8.7200     0.0710     0.4400 c3         1 DWT       0.060900
     28 NAJ          6.8160    -1.3330     0.0560 nc         1 DWT      -0.266400
     29 C4           5.5060    -1.1590    -0.0460 ca         1 DWT       0.015000
     30 N3           4.6060    -2.1370    -0.2730 nb         1 DWT      -0.177000
     31 C2           3.3680    -1.7190    -0.3380 cp         1 DWT       0.256500
     32 CAL          2.3200    -2.7340    -0.5800 cp         1 DWT      -0.204500
     33 CAN          2.6390    -4.0800    -0.7460 ca         1 DWT      -0.030000
     34 CAP          1.6230    -4.9920    -0.9650 ca         1 DWT      -0.182000
     35 CAQ          0.3150    -4.5300    -1.0100 ca         1 DWT       0.348900
     36 NAO         -0.0080    -3.2510    -0.8530 nb         1 DWT      -0.678000
     37 CAM          0.9720    -2.3820    -0.6440 ca         1 DWT       0.379900
     38 H1          -4.5850     1.0170    -1.0830 ha         1 DWT       0.124000
     39 H2          -7.2630    -0.8230     1.7340 ha         1 DWT       0.133000
     40 H3          -5.5530    -0.5750     3.4750 ha         1 DWT       0.123000
     41 H4          -3.3970     0.4580     2.9960 ha         1 DWT       0.146000
     42 H5          -2.6670     1.9360    -0.3170 hn         1 DWT       0.157000
     43 H6           1.1550     0.6460     1.1440 ha         1 DWT       0.161000
     44 H7          -1.5350     3.7130    -0.1820 ha         1 DWT       0.118000
     45 H8           0.3490     4.9550    -1.0950 ha         1 DWT       0.118000
     46 H9           3.6770     4.6120    -0.3920 hc         1 DWT       0.045700
     47 H10          3.5220     3.6850    -1.8800 hc         1 DWT       0.045700
     48 H11          2.6060     5.1740    -1.6630 hc         1 DWT       0.045700
     49 H12          4.0790     2.4910     0.2530 hn         1 DWT       0.500000
     50 H13          6.6230     1.8800     0.5040 h4         1 DWT       0.225000
     51 H14          9.0760    -0.5390     1.2660 h1         1 DWT       0.066033
     52 H15          9.2350    -0.2220    -0.4730 h1         1 DWT       0.066033
     53 H16          8.9250     1.1160     0.6500 h1         1 DWT       0.066033
     54 H17          3.6710    -4.4020    -0.7040 ha         1 DWT       0.143000
     55 H18          1.8340    -6.0430    -1.0970 ha         1 DWT       0.124000
     56 H19         -0.5040    -5.2200    -1.1800 h4         1 DWT       0.017100
     57 H20          0.6810    -1.3450    -0.5210 h4         1 DWT       0.037100
@<TRIPOS>BOND
     1     1     2 1   
     2     2     3 1   
     3     2     4 1   
     4     2     5 1   
     5     5     6 ar  
     6     5     7 ar  
     7     6    10 ar  
     8     6    38 1   
     9     7     8 ar  
    10     7    39 1   
    11     8     9 ar  
    12     8    40 1   
    13     9    10 ar  
    14     9    41 1   
    15    10    11 1   
    16    11    12 1   
    17    11    42 1   
    18    12    13 2   
    19    12    14 1   
    20    14    15 ar  
    21    14    16 ar  
    22    15    20 ar  
    23    15    43 1   
    24    16    17 ar  
    25    16    44 1   
    26    17    18 ar  
    27    17    45 1   
    28    18    19 1   
    29    18    20 ar  
    30    19    46 1   
    31    19    47 1   
    32    19    48 1   
    33    20    21 1   
    34    21    22 1   
    35    21    49 1   
    36    22    23 ar  
    37    22    24 ar  
    38    23    31 ar  
    39    24    25 2   
    40    24    29 ar  
    41    25    26 1   
    42    25    50 1   
    43    26    27 1   
    44    26    28 1   
    45    27    51 1   
    46    27    52 1   
    47    27    53 1   
    48    28    29 2   
    49    29    30 ar  
    50    30    31 ar  
    51    31    32 1   
    52    32    33 ar  
    53    32    37 ar  
    54    33    34 ar  
    55    33    54 1   
    56    34    35 ar  
    57    34    55 1   
    58    35    36 ar  
    59    35    56 1   
    60    36    37 ar  
    61    37    57 1   
@<TRIPOS>SUBSTRUCTURE
     1 DWT         1 TEMP              0 ****  ****    0 ROOT
