@<TRIPOS>MOLECULE
DWT
   57    61     1     0     0
SMALL
No Charge or Current Charge


@<TRIPOS>ATOM
      1 FBI         -8.8550     1.8750     1.2750 f          1 DWT      -0.114333
      2 CBH         -7.8010     2.1140     0.4610 c3         1 DWT       0.356300
      3 FBJ         -8.2380     1.9490    -0.8080 f          1 DWT      -0.114333
      4 FBK         -7.4920     3.4230     0.6060 f          1 DWT      -0.114333
      5 CBF         -6.6060     1.1980     0.7620 ca         1 DWT      -0.169300
      6 CBD         -5.2920     1.6090     0.4470 ca         1 DWT      -0.118000
      7 CBG         -6.8020    -0.0770     1.3330 ca         1 DWT      -0.084000
      8 CBE         -5.7050    -0.9120     1.5940 ca         1 DWT      -0.094000
      9 CBC         -4.4010    -0.4900     1.2870 ca         1 DWT      -0.093000
     10 CBB         -4.1840     0.7800     0.7090 ca         1 DWT      -0.022000
     11 NAZ         -2.8970     1.2790     0.3590 ns         1 DWT      -0.147000
     12 CAY         -1.6130     0.7780     0.5400 c          1 DWT       0.622700
     13 OBA         -1.3790    -0.2830     1.1090 o          1 DWT      -0.567100
     14 CAV         -0.4860     1.6340    -0.0110 ca         1 DWT      -0.142600
     15 CAT          0.8510     1.2000     0.1420 ca         1 DWT      -0.051000
     16 CAW         -0.7190     2.8620    -0.6730 ca         1 DWT      -0.098000
     17 CAU          0.3550     3.6260    -1.1560 ca         1 DWT      -0.100000
     18 CAS          1.6830     3.1860    -1.0010 ca         1 DWT      -0.089300
     19 CAX          2.8200     4.0500    -1.5460 c3         1 DWT      -0.052800
     20 CAR          1.9360     1.9510    -0.3570 ca         1 DWT       0.290000
     21 NAC          3.2610     1.5140    -0.1950 nu         1 DWT      -0.942900
     22 C6           3.8660     0.2710    -0.0870 ca         1 DWT       0.460900
     23 N1           3.1410    -0.8370    -0.3090 nb         1 DWT      -0.297000
     24 C5           5.2300     0.1580     0.1930 ca         1 DWT      -0.298000
     25 CAH          6.2390     1.1300     0.4550 cc         1 DWT      -0.155100
     26 NAI          7.4030     0.4070     0.6680 na         1 DWT       0.150500
     27 CAK          8.7340     0.9370     0.9820 c3         1 DWT       0.060900
     28 NAJ          7.1970    -0.9720     0.5590 nc         1 DWT      -0.266400
     29 C4           5.8330    -1.0750     0.2630 ca         1 DWT       0.015000
     30 N3           5.0990    -2.1840     0.0530 nb         1 DWT      -0.177000
     31 C2           3.7790    -2.0300    -0.2260 cp         1 DWT       0.256500
     32 CAL          2.9620    -3.2700    -0.4590 cp         1 DWT      -0.204500
     33 CAN          3.5330    -4.5690    -0.4060 ca         1 DWT      -0.030000
     34 CAP          2.7150    -5.6870    -0.6340 ca         1 DWT      -0.182000
     35 CAQ          1.3540    -5.4970    -0.9080 ca         1 DWT       0.348900
     36 NAO          0.7840    -4.2740    -0.9650 nb         1 DWT      -0.678000
     37 CAM          1.5710    -3.1950    -0.7440 ca         1 DWT       0.379900
     38 H1          -5.1290     2.5840    -0.0070 ha         1 DWT       0.124000
     39 H2          -7.8040    -0.4290     1.5740 ha         1 DWT       0.133000
     40 H3          -5.8660    -1.8940     2.0340 ha         1 DWT       0.123000
     41 H4          -3.5810    -1.1680     1.4980 ha         1 DWT       0.146000
     42 H5          -2.9260     2.1710    -0.1150 hn         1 DWT       0.157000
     43 H6           1.0510     0.2750     0.6720 ha         1 DWT       0.161000
     44 H7          -1.7260     3.2470    -0.8200 ha         1 DWT       0.118000
     45 H8           0.1490     4.5700    -1.6560 ha         1 DWT       0.118000
     46 H9           3.4690     4.4060    -0.7370 hc         1 DWT       0.045700
     47 H10          3.4390     3.4890    -2.2570 hc         1 DWT       0.045700
     48 H11          2.4430     4.9340    -2.0740 hc         1 DWT       0.045700
     49 H12          3.9470     2.2570    -0.2860 hn         1 DWT       0.500000
     50 H13          6.2350     2.2130     0.5180 h4         1 DWT       0.225000
     51 H14          8.9820     0.7050     2.0240 h1         1 DWT       0.066033
     52 H15          9.4770     0.4790     0.3190 h1         1 DWT       0.066033
     53 H16          8.7440     2.0240     0.8400 h1         1 DWT       0.066033
     54 H17          4.5900    -4.7170    -0.1930 ha         1 DWT       0.143000
     55 H18          3.1270    -6.6910    -0.5990 ha         1 DWT       0.124000
     56 H19          0.6990    -6.3480    -1.0890 h4         1 DWT       0.017100
     57 H20          1.0610    -2.2340    -0.8010 h4         1 DWT       0.037100
@<TRIPOS>BOND
     1     1     2 1   
     2     2     3 1   
     3     2     4 1   
     4     2     5 1   
     5     5     6 ar  
     6     5     7 ar  
     7     6    10 ar  
     8     6    38 1   
     9     7     8 ar  
    10     7    39 1   
    11     8     9 ar  
    12     8    40 1   
    13     9    10 ar  
    14     9    41 1   
    15    10    11 1   
    16    11    12 1   
    17    11    42 1   
    18    12    13 2   
    19    12    14 1   
    20    14    15 ar  
    21    14    16 ar  
    22    15    20 ar  
    23    15    43 1   
    24    16    17 ar  
    25    16    44 1   
    26    17    18 ar  
    27    17    45 1   
    28    18    19 1   
    29    18    20 ar  
    30    19    46 1   
    31    19    47 1   
    32    19    48 1   
    33    20    21 1   
    34    21    22 1   
    35    21    49 1   
    36    22    23 ar  
    37    22    24 ar  
    38    23    31 ar  
    39    24    25 2   
    40    24    29 ar  
    41    25    26 1   
    42    25    50 1   
    43    26    27 1   
    44    26    28 1   
    45    27    51 1   
    46    27    52 1   
    47    27    53 1   
    48    28    29 2   
    49    29    30 ar  
    50    30    31 ar  
    51    31    32 1   
    52    32    33 ar  
    53    32    37 ar  
    54    33    34 ar  
    55    33    54 1   
    56    34    35 ar  
    57    34    55 1   
    58    35    36 ar  
    59    35    56 1   
    60    36    37 ar  
    61    37    57 1   
@<TRIPOS>SUBSTRUCTURE
     1 DWT         1 TEMP              0 ****  ****    0 ROOT
