@<TRIPOS>MOLECULE
DWV
   37    39     1     0     0
SMALL
bcc


@<TRIPOS>ATOM
      1 CAK         -3.3310    -1.5140    -0.5280 c6         1 DWV       0.215300
      2 CAI         -4.2390    -2.1140     0.5310 c6         1 DWV       0.142800
      3 NAU         -5.6010    -1.6620     0.3460 n3         1 DWV      -0.715600
      4 CAA         -6.5080    -2.3000     1.2740 c3         1 DWV       0.151100
      5 CAJ         -5.6740    -0.2180     0.4350 c6         1 DWV       0.142800
      6 CAL         -4.7940     0.4320    -0.6170 c6         1 DWV       0.215300
      7 NAV         -3.4270    -0.0630    -0.4970 nh         1 DWV      -0.711600
      8 CAR         -2.4020     0.7530    -0.3670 cc         1 DWV       0.742100
      9 SAN         -0.7610     0.0750    -0.2690 ss         1 DWV      -0.248800
     10 NAM         -2.4990     2.0530    -0.3200 nd         1 DWV      -0.749100
     11 CAS         -1.2960     2.6720    -0.1910 c          1 DWV       0.721700
     12 OAB         -1.1390     3.8740    -0.1260 o          1 DWV      -0.516100
     13 CAT         -0.1460     1.7020    -0.1310 cc         1 DWV      -0.128600
     14 CAE          1.1170     2.0960     0.0590 cf         1 DWV      -0.010200
     15 CAO          2.3270     1.2910     0.1610 ca         1 DWV      -0.061800
     16 CAH          2.4590     0.0300    -0.4200 ca         1 DWV      -0.096000
     17 CAQ          3.6310    -0.6930    -0.2750 ca         1 DWV       0.021400
     18 CLD          3.7600    -2.2400    -1.0200 cl         1 DWV      -0.077400
     19 CAP          4.6930    -0.1700     0.4560 ca         1 DWV       0.035400
     20 CLC          6.1470    -1.0630     0.6550 cl         1 DWV      -0.072400
     21 CAG          4.5790     1.0920     1.0220 ca         1 DWV      -0.118000
     22 CAF          3.4140     1.8160     0.8660 ca         1 DWV      -0.097000
     23 H1          -2.3080    -1.8440    -0.3550 h1         1 DWV       0.074450
     24 H2          -3.6280    -1.8620    -1.5210 h1         1 DWV       0.074450
     25 H3          -4.2000    -3.2010     0.4350 h1         1 DWV       0.047950
     26 H4          -3.8460    -1.8590     1.5300 h1         1 DWV       0.047950
     27 H6          -6.2900    -2.0640     2.3260 h1         1 DWV       0.035700
     28 H7          -7.5320    -1.9870     1.0660 h1         1 DWV       0.035700
     29 H8          -6.4580    -3.3830     1.1560 h1         1 DWV       0.035700
     30 H9          -6.7030     0.1020     0.2620 h1         1 DWV       0.047950
     31 H10         -5.3810     0.1520     1.4330 h1         1 DWV       0.047950
     32 H11         -5.1570     0.1830    -1.6180 h1         1 DWV       0.074450
     33 H12         -4.7980     1.5120    -0.5070 h1         1 DWV       0.074450
     34 H13          1.2550     3.1650     0.1910 ha         1 DWV       0.159000
     35 H15          1.6740    -0.3920    -1.0330 ha         1 DWV       0.158000
     36 H16          5.4060     1.5040     1.5830 ha         1 DWV       0.154000
     37 H17          3.3410     2.8010     1.3090 ha         1 DWV       0.145000
@<TRIPOS>BOND
     1     1     2 1   
     2     1     7 1   
     3     1    23 1   
     4     1    24 1   
     5     2     3 1   
     6     2    25 1   
     7     2    26 1   
     8     3     4 1   
     9     3     5 1   
    10     4    27 1   
    11     4    28 1   
    12     4    29 1   
    13     5     6 1   
    14     5    30 1   
    15     5    31 1   
    16     6     7 1   
    17     6    32 1   
    18     6    33 1   
    19     7     8 1   
    20     8     9 1   
    21     8    10 2   
    22     9    13 1   
    23    10    11 1   
    24    11    12 2   
    25    11    13 1   
    26    13    14 2   
    27    14    15 1   
    28    14    34 1   
    29    15    16 ar  
    30    15    22 ar  
    31    16    17 ar  
    32    16    35 1   
    33    17    18 1   
    34    17    19 ar  
    35    19    20 1   
    36    19    21 ar  
    37    21    22 ar  
    38    21    36 1   
    39    22    37 1   
@<TRIPOS>SUBSTRUCTURE
     1 DWV         1 TEMP              0 ****  ****    0 ROOT
