@<TRIPOS>MOLECULE
DWV
   37    39     1     0     0
SMALL
No Charge or Current Charge


@<TRIPOS>ATOM
      1 CAK         -3.5660    -1.5000    -1.0630 c6         1 DWV       0.215300
      2 CAI         -4.2490    -2.1400     0.1860 c6         1 DWV       0.142800
      3 NAU         -5.6430    -1.6340     0.3970 n3         1 DWV      -0.715600
      4 CAA         -6.3100    -2.2590     1.5600 c3         1 DWV       0.151100
      5 CAJ         -5.6580    -0.1370     0.4540 c6         1 DWV       0.142800
      6 CAL         -4.9810     0.5160    -0.7910 c6         1 DWV       0.215300
      7 NAV         -3.5910    -0.0070    -0.9800 nh         1 DWV      -0.711600
      8 CAR         -2.4850     0.7270    -0.6120 cc         1 DWV       0.742100
      9 SAN         -0.8600     0.0320    -0.4870 ss         1 DWV      -0.248800
     10 NAM         -2.5490     2.0060    -0.3360 nd         1 DWV      -0.749100
     11 CAS         -1.3440     2.5910     0.0090 c          1 DWV       0.721700
     12 OAB         -1.2610     3.7760     0.2920 o          1 DWV      -0.516100
     13 CAT         -0.2500     1.6110    -0.0200 cc         1 DWV      -0.128600
     14 CAE          1.0530     1.9320     0.2840 cf         1 DWV      -0.060200
     15 CAO          2.3450     1.2020     0.3490 ca         1 DWV      -0.061800
     16 CAH          2.4730    -0.1760     0.0620 ca         1 DWV      -0.078000
     17 CAQ          3.7220    -0.8160     0.1390 ca         1 DWV       0.113000
     18 ClD          3.8230    -2.5390    -0.2300 cl         1 DWV      -0.169000
     19 CAP          4.8690    -0.0850     0.5070 ca         1 DWV       0.127000
     20 ClC          6.4510    -0.8580     0.6140 cl         1 DWV      -0.164000
     21 CAG          4.7550     1.2830     0.7940 ca         1 DWV      -0.100000
     22 CAF          3.5040     1.9200     0.7160 ca         1 DWV      -0.079000
     23 H1          -2.5480    -1.9010    -1.1620 h1         1 DWV       0.074450
     24 H2          -4.1120    -1.8260    -1.9610 h1         1 DWV       0.074450
     25 H3          -4.2560    -3.2320     0.0590 h1         1 DWV       0.047950
     26 H4          -3.6300    -1.9240     1.0690 h1         1 DWV       0.047950
     27 H6          -5.7840    -2.0140     2.4920 h1         1 DWV       0.035700
     28 H7          -7.3470    -1.9070     1.6470 h1         1 DWV       0.035700
     29 H8          -6.3310    -3.3510     1.4530 h1         1 DWV       0.035700
     30 H9          -6.6920     0.2310     0.5230 h1         1 DWV       0.047950
     31 H10         -5.1340     0.2120     1.3560 h1         1 DWV       0.047950
     32 H11         -5.5860     0.2830    -1.6790 h1         1 DWV       0.074450
     33 H12         -5.0040     1.6100    -0.6790 h1         1 DWV       0.074450
     34 H13          1.1640     2.9880     0.5430 ha         1 DWV       0.209000
     35 H15          1.6180    -0.7740    -0.2240 ha         1 DWV       0.140000
     36 H16          5.6370     1.8510     1.0790 ha         1 DWV       0.136000
     37 H17          3.4420     2.9820     0.9440 ha         1 DWV       0.127000
@<TRIPOS>BOND
     1     1     2 1   
     2     1     7 1   
     3     1    23 1   
     4     1    24 1   
     5     2     3 1   
     6     2    25 1   
     7     2    26 1   
     8     3     4 1   
     9     3     5 1   
    10     4    27 1   
    11     4    28 1   
    12     4    29 1   
    13     5     6 1   
    14     5    30 1   
    15     5    31 1   
    16     6     7 1   
    17     6    32 1   
    18     6    33 1   
    19     7     8 1   
    20     8     9 1   
    21     8    10 2   
    22     9    13 1   
    23    10    11 1   
    24    11    12 2   
    25    11    13 1   
    26    13    14 2   
    27    14    15 1   
    28    14    34 1   
    29    15    16 ar  
    30    15    22 ar  
    31    16    17 ar  
    32    16    35 1   
    33    17    18 1   
    34    17    19 ar  
    35    19    20 1   
    36    19    21 ar  
    37    21    22 ar  
    38    21    36 1   
    39    22    37 1   
@<TRIPOS>SUBSTRUCTURE
     1 DWV         1 TEMP              0 ****  ****    0 ROOT
