@<TRIPOS>MOLECULE
DWZ
   52    53     1     0     0
SMALL
abcg2


@<TRIPOS>ATOM
      1 CBE          6.8730     0.9980    -1.6140 c3         1 DWZ       0.092300
      2 NBC          5.9770     0.0180    -1.0280 n          1 DWZ      -0.420800
      3 CBD          5.7720    -1.1980    -1.7900 c3         1 DWZ       0.092300
      4 C            5.1920     0.4070     0.0020 c          1 DWZ       0.604100
      5 O            5.2920     1.5190     0.5000 o          1 DWZ      -0.577100
      6 CA           4.1440    -0.5830     0.5010 c5         1 DWZ       0.082500
      7 CB           2.9380    -0.6090    -0.4900 c5         1 DWZ      -0.087400
      8 N            3.6270    -0.1740     1.8020 n7         1 DWZ      -0.824400
      9 CD           2.3260     0.4270     1.5640 c5         1 DWZ       0.148800
     10 CG           1.7320    -0.3930     0.4230 c5         1 DWZ       0.051300
     11 SAK          0.3920     0.4060    -0.4920 ss         1 DWZ      -0.478000
     12 CAI         -0.9330     0.6050     0.7600 c5         1 DWZ       0.021000
     13 CAH         -2.0520     1.4540     0.1420 c5         1 DWZ      -0.084700
     14 CAS         -2.7650     2.2580     1.2220 c3         1 DWZ      -0.085100
     15 CAL         -1.6510    -0.7030     0.9820 ce         1 DWZ       0.333300
     16 CAM         -1.1710    -1.7650     1.9640 c          1 DWZ       0.636700
     17 OAT         -0.3250    -1.3690     2.7900 o          1 DWZ      -0.699500
     18 OAU         -1.6740    -2.8940     1.8650 o          1 DWZ      -0.699500
     19 NAJ         -2.7130    -0.8410     0.3000 n2         1 DWZ      -0.536900
     20 CAD         -2.9100     0.3490    -0.5180 c5         1 DWZ       0.093500
     21 CAB         -4.3790     0.6970    -0.7570 c3         1 DWZ      -0.150700
     22 CAE         -5.0960    -0.1490    -1.8260 c3         1 DWZ       0.187300
     23 CAF         -4.3850    -0.1750    -3.1690 c3         1 DWZ      -0.127100
     24 OAG         -5.2740    -1.4460    -1.2960 oh         1 DWZ      -0.624000
     25 CAA         -5.2150     0.6050     0.4990 c          1 DWZ       0.601900
     26 OAC         -6.2660     1.1830     0.6390 o          1 DWZ      -0.571100
     27 HBE          6.3480     1.6970    -2.2690 h1         1 DWZ       0.034367
     28 HBEA         7.3840     1.5690    -0.8440 h1         1 DWZ       0.034367
     29 HBEB         7.6240     0.4780    -2.2060 h1         1 DWZ       0.034367
     30 HBD          6.7240    -1.5260    -2.2030 h1         1 DWZ       0.034367
     31 HBDA         5.4010    -2.0080    -1.1680 h1         1 DWZ       0.034367
     32 HBDB         5.0730    -1.0540    -2.6170 h1         1 DWZ       0.034367
     33 HA           4.5830    -1.5770     0.5990 h1         1 DWZ       0.053700
     34 HB           3.0150     0.2000    -1.2220 hc         1 DWZ       0.053200
     35 HBA          2.8820    -1.5430    -1.0470 hc         1 DWZ       0.053200
     36 HN           3.5070    -1.0000     2.3720 hn         1 DWZ       0.416000
     37 HD           1.7100     0.4020     2.4620 h1         1 DWZ       0.078700
     38 HDA          2.4420     1.4700     1.2530 h1         1 DWZ       0.078700
     39 HG           1.3880    -1.3500     0.8160 h1         1 DWZ       0.109700
     40 HAI         -0.5030     1.0340     1.6640 h1         1 DWZ       0.099700
     41 HAH         -1.6720     2.1480    -0.6120 hc         1 DWZ       0.055700
     42 HAS         -2.0730     2.9660     1.6780 hc         1 DWZ       0.034367
     43 HASA        -3.5920     2.8400     0.8140 hc         1 DWZ       0.034367
     44 HASB        -3.1520     1.6270     2.0250 hc         1 DWZ       0.034367
     45 HAD         -2.4610     0.1340    -1.4960 h1         1 DWZ       0.062700
     46 HAB         -4.4300     1.7300    -1.1170 hc         1 DWZ       0.054700
     47 HAE         -6.0710     0.3340    -1.9810 h1         1 DWZ       0.018700
     48 HAF         -4.1730     0.8350    -3.5230 hc         1 DWZ       0.038367
     49 HAFA        -3.4460    -0.7280    -3.1260 hc         1 DWZ       0.038367
     50 HAFB        -5.0170    -0.6590    -3.9160 hc         1 DWZ       0.038367
     51 HOAG        -5.8320    -1.9430    -1.9030 ho         1 DWZ       0.426000
     52 HAA         -4.8310    -0.0590     1.2910 h4         1 DWZ       0.035200
@<TRIPOS>BOND
     1     1     2 1   
     2     1    27 1   
     3     1    28 1   
     4     1    29 1   
     5     2     3 1   
     6     2     4 1   
     7     3    30 1   
     8     3    31 1   
     9     3    32 1   
    10     4     5 2   
    11     4     6 1   
    12     6     7 1   
    13     6     8 1   
    14     6    33 1   
    15     7    10 1   
    16     7    34 1   
    17     7    35 1   
    18     8     9 1   
    19     8    36 1   
    20     9    10 1   
    21     9    37 1   
    22     9    38 1   
    23    10    11 1   
    24    10    39 1   
    25    11    12 1   
    26    12    13 1   
    27    12    15 1   
    28    12    40 1   
    29    13    14 1   
    30    13    20 1   
    31    13    41 1   
    32    14    42 1   
    33    14    43 1   
    34    14    44 1   
    35    15    16 1   
    36    15    19 2   
    37    16    17 1   
    38    16    18 1   
    39    19    20 1   
    40    20    21 1   
    41    20    45 1   
    42    21    22 1   
    43    21    25 1   
    44    21    46 1   
    45    22    23 1   
    46    22    24 1   
    47    22    47 1   
    48    23    48 1   
    49    23    49 1   
    50    23    50 1   
    51    24    51 1   
    52    25    26 2   
    53    25    52 1   
@<TRIPOS>SUBSTRUCTURE
     1 DWZ         1 TEMP              0 ****  ****    0 ROOT
