@<TRIPOS>MOLECULE
DWZ
   52    53     1     0     0
SMALL
No Charge or Current Charge


@<TRIPOS>ATOM
      1 CBE          6.6810     0.7170    -2.1930 c3         1 DWZ       0.092300
      2 NBC          5.7690    -0.0950    -1.3560 n          1 DWZ      -0.420800
      3 CBD          5.7560    -1.5540    -1.6210 c3         1 DWZ       0.092300
      4 C            5.2040     0.4790    -0.1820 c          1 DWZ       0.604100
      5 O            5.5260     1.6060     0.1890 o          1 DWZ      -0.577100
      6 CA           4.1010    -0.4390     0.5100 c5         1 DWZ       0.082500
      7 CB           2.8330    -0.5010    -0.4200 c5         1 DWZ      -0.087400
      8 N            3.5960     0.0600     1.8440 n7         1 DWZ      -0.824400
      9 CD           2.3520     0.7970     1.5170 c5         1 DWZ       0.148800
     10 CG           1.6580    -0.1830     0.5430 c5         1 DWZ       0.051300
     11 SAK          0.3280     0.7010    -0.4290 ss         1 DWZ      -0.478000
     12 CAI         -0.9350     0.6850     0.9710 c5         1 DWZ       0.021000
     13 CAH         -2.1940     1.4480     0.4750 c5         1 DWZ      -0.084700
     14 CAS         -3.0370     2.0100     1.6490 c3         1 DWZ      -0.085100
     15 CAL         -1.5710    -0.7050     1.1260 ce         1 DWZ       0.333300
     16 CAM         -1.1940    -1.4830     2.4020 c          1 DWZ       0.636700
     17 OAT         -0.2980    -1.0620     3.1270 o          1 DWZ      -0.699500
     18 OAU         -1.7980    -2.5180     2.6710 o          1 DWZ      -0.699500
     19 NAJ         -2.6340    -0.9210     0.3940 n2         1 DWZ      -0.536900
     20 CAD         -2.8570     0.3200    -0.3930 c5         1 DWZ       0.093500
     21 CAB         -4.3550     0.5270    -0.7990 c3         1 DWZ      -0.150700
     22 CAE         -4.8150    -0.1910    -2.0980 c3         1 DWZ       0.187300
     23 CAF         -4.0590     0.2480    -3.3700 c3         1 DWZ      -0.127100
     24 OAG         -4.7140    -1.6080    -1.9610 oh         1 DWZ      -0.624000
     25 CAA         -5.3260     0.1460     0.3270 c          1 DWZ       0.601900
     26 OAC         -6.1100     0.9420     0.8400 o          1 DWZ      -0.571100
     27 HBE          6.2670     1.7240    -2.3320 h1         1 DWZ       0.034367
     28 HBEA         7.6610     0.7930    -1.7040 h1         1 DWZ       0.034367
     29 HBEB         6.8070     0.2560    -3.1810 h1         1 DWZ       0.034367
     30 HBD          6.4480    -1.8020    -2.4360 h1         1 DWZ       0.034367
     31 HBDA         6.0750    -2.1030    -0.7260 h1         1 DWZ       0.034367
     32 HBDB         4.7510    -1.8770    -1.9140 h1         1 DWZ       0.034367
     33 HA           4.5330    -1.4360     0.6570 h1         1 DWZ       0.053700
     34 HB           2.8980     0.2410    -1.2250 hc         1 DWZ       0.053200
     35 HBA          2.7090    -1.4790    -0.8980 hc         1 DWZ       0.053200
     36 HN           3.3380    -0.7510     2.4230 hn         1 DWZ       0.416000
     37 HD           1.7460     1.0020     2.4110 h1         1 DWZ       0.078700
     38 HDA          2.5750     1.7570     1.0290 h1         1 DWZ       0.078700
     39 HG           1.2880    -1.0870     1.0450 h1         1 DWZ       0.109700
     40 HAI         -0.5210     1.1060     1.8960 h1         1 DWZ       0.099700
     41 HAH         -1.9220     2.3130    -0.1420 hc         1 DWZ       0.055700
     42 HAS         -2.4400     2.6950     2.2640 hc         1 DWZ       0.034367
     43 HASA        -3.9000     2.5790     1.2830 hc         1 DWZ       0.034367
     44 HASB        -3.4070     1.2140     2.3070 hc         1 DWZ       0.034367
     45 HAD         -2.2820     0.2350    -1.3230 h1         1 DWZ       0.062700
     46 HAB         -4.5010     1.5970    -0.9870 hc         1 DWZ       0.054700
     47 HAE         -5.8700     0.0740    -2.2540 h1         1 DWZ       0.018700
     48 HAF         -4.0690     1.3410    -3.4650 hc         1 DWZ       0.038367
     49 HAFA        -3.0170    -0.0890    -3.3600 hc         1 DWZ       0.038367
     50 HAFB        -4.5390    -0.1700    -4.2630 hc         1 DWZ       0.038367
     51 HOAG        -4.9570    -1.9980    -2.8280 ho         1 DWZ       0.426000
     52 HAA         -5.2970    -0.9160     0.6590 h4         1 DWZ       0.035200
@<TRIPOS>BOND
     1     1     2 1   
     2     1    27 1   
     3     1    28 1   
     4     1    29 1   
     5     2     3 1   
     6     2     4 1   
     7     3    30 1   
     8     3    31 1   
     9     3    32 1   
    10     4     5 2   
    11     4     6 1   
    12     6     7 1   
    13     6     8 1   
    14     6    33 1   
    15     7    10 1   
    16     7    34 1   
    17     7    35 1   
    18     8     9 1   
    19     8    36 1   
    20     9    10 1   
    21     9    37 1   
    22     9    38 1   
    23    10    11 1   
    24    10    39 1   
    25    11    12 1   
    26    12    13 1   
    27    12    15 1   
    28    12    40 1   
    29    13    14 1   
    30    13    20 1   
    31    13    41 1   
    32    14    42 1   
    33    14    43 1   
    34    14    44 1   
    35    15    16 1   
    36    15    19 2   
    37    16    17 1   
    38    16    18 1   
    39    19    20 1   
    40    20    21 1   
    41    20    45 1   
    42    21    22 1   
    43    21    25 1   
    44    21    46 1   
    45    22    23 1   
    46    22    24 1   
    47    22    47 1   
    48    23    48 1   
    49    23    49 1   
    50    23    50 1   
    51    24    51 1   
    52    25    26 2   
    53    25    52 1   
@<TRIPOS>SUBSTRUCTURE
     1 DWZ         1 TEMP              0 ****  ****    0 ROOT
