@<TRIPOS>MOLECULE
DX1
   36    37     1     0     0
SMALL
bcc


@<TRIPOS>ATOM
      1 C5          -1.3570     0.6300     0.0320 ca         1 DX1       0.271300
      2 N7          -0.2150    -1.4600    -0.2050 nb         1 DX1      -0.653000
      3 C2           2.1900     1.2690     0.1010 ca         1 DX1       0.725900
      4 N1           3.3060     0.5790     0.0260 nb         1 DX1      -0.876000
      5 C6          -1.3400    -0.7910    -0.1340 ca         1 DX1       0.378300
      6 C10          3.2050    -0.7610    -0.1250 ca         1 DX1       0.966900
      7 N12          2.2240     2.5900     0.2450 nv         1 DX1      -0.948500
      8 N9           2.0960    -1.4820    -0.2020 nb         1 DX1      -0.800000
      9 C8           0.9490    -0.7890    -0.1280 ca         1 DX1       0.646000
     10 C16         -2.6200    -1.5910    -0.1880 c3         1 DX1      -0.114000
     11 C17         -2.4700    -2.8850    -0.9780 c3         1 DX1      -0.083100
     12 C18         -3.0950    -1.8780     1.2410 c3         1 DX1      -0.083100
     13 N4          -0.2240     1.2840     0.1000 nb         1 DX1      -0.617000
     14 C3           0.9170     0.6020     0.0230 ca         1 DX1       0.027000
     15 C13         -2.6300     1.4420     0.0770 c3         1 DX1      -0.100000
     16 C14         -2.5460     2.5760     1.0930 c3         1 DX1      -0.082600
     17 C15         -2.9490     1.9740    -1.3220 c3         1 DX1      -0.082600
     18 HN11         5.2330    -0.9280    -0.0260 hn         1 DX1       0.445800
     19 HN1A         4.3870    -2.4170    -0.1980 hn         1 DX1       0.445800
     20 HN12         3.1000     3.0700     0.3590 hn         1 DX1       0.453800
     21 HN1B         1.3690     3.1070     0.3570 hn         1 DX1       0.453800
     22 H16         -3.3840    -0.9870    -0.6840 hc         1 DX1       0.054700
     23 H17         -3.4360    -3.3850    -1.0470 hc         1 DX1       0.040867
     24 H17A        -2.1170    -2.6990    -1.9930 hc         1 DX1       0.040867
     25 H17B        -1.7700    -3.5680    -0.4990 hc         1 DX1       0.040867
     26 H18         -3.2490    -0.9650     1.8170 hc         1 DX1       0.040867
     27 H18A        -4.0400    -2.4210     1.2240 hc         1 DX1       0.040867
     28 H18B        -2.3630    -2.4900     1.7720 hc         1 DX1       0.040867
     29 H13         -3.4540     0.7930     0.3810 hc         1 DX1       0.053700
     30 H14         -1.7520     3.2800     0.8460 hc         1 DX1       0.037367
     31 H14A        -3.4880     3.1250     1.1180 hc         1 DX1       0.037367
     32 H14B        -2.3570     2.1950     2.0980 hc         1 DX1       0.037367
     33 H15         -3.8850     2.5350    -1.3160 hc         1 DX1       0.037367
     34 H15A        -2.1590     2.6400    -1.6720 hc         1 DX1       0.037367
     35 H15B        -3.0510     1.1670    -2.0500 hc         1 DX1       0.037367
     36 N11          4.3770    -1.4130    -0.2270 nv         1 DX1      -0.952500
@<TRIPOS>BOND
     1     1     5 ar  
     2     1    13 ar  
     3     1    15 1   
     4     2     5 ar  
     5     2     9 ar  
     6     3     4 ar  
     7     3     7 1   
     8     3    14 ar  
     9     4     6 ar  
    10     5    10 1   
    11     6     8 ar  
    12     6    36 1   
    13     7    20 1   
    14     7    21 1   
    15     8     9 ar  
    16     9    14 ar  
    17    10    11 1   
    18    10    12 1   
    19    10    22 1   
    20    11    23 1   
    21    11    24 1   
    22    11    25 1   
    23    12    26 1   
    24    12    27 1   
    25    12    28 1   
    26    13    14 ar  
    27    15    16 1   
    28    15    17 1   
    29    15    29 1   
    30    16    30 1   
    31    16    31 1   
    32    16    32 1   
    33    17    33 1   
    34    17    34 1   
    35    17    35 1   
    36    18    36 1   
    37    19    36 1   
@<TRIPOS>SUBSTRUCTURE
     1 DX1         1 TEMP              0 ****  ****    0 ROOT
