@<TRIPOS>MOLECULE
DX1
   36    37     1     0     0
SMALL
No Charge or Current Charge


@<TRIPOS>ATOM
      1 C5          -1.3610     0.6500     0.0290 ca         1 DX1       0.271300
      2 N7          -0.2000    -1.4600    -0.1490 nb         1 DX1      -0.127000
      3 C2           2.2480     1.2620     0.0310 ca         1 DX1       0.462900
      4 N1           3.4000     0.5890    -0.0140 nb         1 DX1      -0.350000
      5 C6          -1.3630    -0.7690    -0.1000 ca         1 DX1       0.115300
      6 C10          3.2760    -0.7320    -0.1060 ca         1 DX1       0.440900
      7 N12          2.4010     2.6150     0.1270 nv         1 DX1      -1.058900
      8 N9           2.1500    -1.4540    -0.1540 nb         1 DX1      -0.274000
      9 C8           0.9720    -0.7930    -0.1040 ca         1 DX1       0.120000
     10 C16         -2.6490    -1.6190    -0.1580 c3         1 DX1      -0.114000
     11 C17         -2.5370    -2.8460    -1.1010 c3         1 DX1      -0.083100
     12 C18         -3.0900    -2.0450     1.2610 c3         1 DX1      -0.083100
     13 N4          -0.1930     1.3390     0.0620 nb         1 DX1      -0.617000
     14 C3           0.9700     0.6320    -0.0040 ca         1 DX1       0.027000
     15 C13         -2.6500     1.4970     0.1050 c3         1 DX1      -0.100000
     16 C14         -2.5320     2.7300     1.0390 c3         1 DX1      -0.082600
     17 C15         -3.1220     1.9110    -1.3080 c3         1 DX1      -0.082600
     18 HN11         5.2870    -0.9430     0.1160 hn         1 DX1       0.501000
     19 HN1A         4.4030    -2.4270     0.0180 hn         1 DX1       0.501000
     20 HN12         3.2890     2.9700     0.4680 hn         1 DX1       0.509000
     21 HN1B         1.5690     3.1460     0.3740 hn         1 DX1       0.509000
     22 H16         -3.4600    -1.0160    -0.5810 hc         1 DX1       0.054700
     23 H17         -3.5080    -3.3460    -1.1980 hc         1 DX1       0.040867
     24 H17A        -2.2170    -2.5350    -2.1030 hc         1 DX1       0.040867
     25 H17B        -1.8170    -3.5810    -0.7200 hc         1 DX1       0.040867
     26 H18         -3.2280    -1.1680     1.9050 hc         1 DX1       0.040867
     27 H18A        -4.0400    -2.5920     1.2250 hc         1 DX1       0.040867
     28 H18B        -2.3370    -2.6940     1.7240 hc         1 DX1       0.040867
     29 H13         -3.4480     0.8900     0.5450 hc         1 DX1       0.053700
     30 H14         -1.8230     3.4670     0.6430 hc         1 DX1       0.037367
     31 H14A        -3.5050     3.2240     1.1480 hc         1 DX1       0.037367
     32 H14B        -2.1950     2.4260     2.0380 hc         1 DX1       0.037367
     33 H15         -4.0750     2.4520    -1.2570 hc         1 DX1       0.037367
     34 H15A        -2.3830     2.5630    -1.7900 hc         1 DX1       0.037367
     35 H15B        -3.2650     1.0300    -1.9450 hc         1 DX1       0.037367
     36 N11          4.4330    -1.4250    -0.1530 nv         1 DX1      -1.062900
@<TRIPOS>BOND
     1     1     5 ar  
     2     1    13 ar  
     3     1    15 1   
     4     2     5 ar  
     5     2     9 ar  
     6     3     4 ar  
     7     3     7 1   
     8     3    14 ar  
     9     4     6 ar  
    10     5    10 1   
    11     6     8 ar  
    12     6    36 1   
    13     7    20 1   
    14     7    21 1   
    15     8     9 ar  
    16     9    14 ar  
    17    10    11 1   
    18    10    12 1   
    19    10    22 1   
    20    11    23 1   
    21    11    24 1   
    22    11    25 1   
    23    12    26 1   
    24    12    27 1   
    25    12    28 1   
    26    13    14 ar  
    27    15    16 1   
    28    15    17 1   
    29    15    29 1   
    30    16    30 1   
    31    16    31 1   
    32    16    32 1   
    33    17    33 1   
    34    17    34 1   
    35    17    35 1   
    36    18    36 1   
    37    19    36 1   
@<TRIPOS>SUBSTRUCTURE
     1 DX1         1 TEMP              0 ****  ****    0 ROOT
