@<TRIPOS>MOLECULE
DX2
   30    32     1     0     0
SMALL
No Charge or Current Charge


@<TRIPOS>ATOM
      1 C4          -2.2930    -1.4470     0.1100 ca         1 DX2       0.474900
      2 C6           0.9240     0.2910     0.0100 cp         1 DX2       0.270500
      3 C7           0.4420     1.6450    -0.0760 ca         1 DX2       0.369900
      4 N1          -3.0850     1.1560    -0.0100 nb         1 DX2      -0.286000
      5 N3          -3.6000    -1.1820     0.1180 nb         1 DX2      -0.360000
      6 CAG          3.3240     0.6410     0.8050 ca         1 DX2      -0.095500
      7 CAE          4.6830     0.2830     0.8180 ca         1 DX2      -0.114000
      8 CAD          5.1320    -0.8090     0.0590 ca         1 DX2      -0.104000
      9 CAF          4.2180    -1.5480    -0.7090 ca         1 DX2      -0.114000
     10 CAH          2.8580    -1.1910    -0.7220 ca         1 DX2      -0.095500
     11 CAN          2.3820    -0.0820     0.0260 cp         1 DX2      -0.133500
     12 N5           0.0430    -0.7380     0.0570 nb         1 DX2      -0.584000
     13 C4A         -1.2890    -0.4400     0.0500 ca         1 DX2      -0.025000
     14 N4          -1.9960    -2.7750     0.1740 nv         1 DX2      -1.059900
     15 C2          -3.9130     0.1090     0.0580 ca         1 DX2       0.448900
     16 C8A         -1.7560     0.9120    -0.0140 ca         1 DX2       0.175000
     17 N8          -0.8700     1.9310    -0.0830 nb         1 DX2      -0.231000
     18 NAB          1.2380     2.7660    -0.2020 nv         1 DX2      -1.065900
     19 HN2         -5.5210     1.3210    -0.2250 hn         1 DX2       0.500000
     20 HN2A        -5.8830    -0.3680    -0.1300 hn         1 DX2       0.500000
     21 HAG          2.9960     1.4750     1.4210 ha         1 DX2       0.121500
     22 HAE          5.3880     0.8490     1.4230 ha         1 DX2       0.114500
     23 HAD          6.1840    -1.0860     0.0700 ha         1 DX2       0.114000
     24 HAF          4.5620    -2.3980    -1.2950 ha         1 DX2       0.114500
     25 HAH          2.1660    -1.7740    -1.3250 ha         1 DX2       0.121500
     26 HN4         -2.7100    -3.4010     0.5350 hn         1 DX2       0.508500
     27 HN4A        -1.0300    -3.0100     0.3880 hn         1 DX2       0.508500
     28 HNAB         2.2110     2.6440    -0.4770 hn         1 DX2       0.495000
     29 HNAA         0.7990     3.6460    -0.4660 hn         1 DX2       0.495000
     30 N2          -5.2320     0.3890     0.0620 nv         1 DX2      -1.061900
@<TRIPOS>BOND
     1     1     5 ar  
     2     1    13 ar  
     3     1    14 1   
     4     2     3 ar  
     5     2    11 1   
     6     2    12 ar  
     7     3    17 ar  
     8     3    18 1   
     9     4    15 ar  
    10     4    16 ar  
    11     5    15 ar  
    12     6     7 ar  
    13     6    11 ar  
    14     6    21 1   
    15     7     8 ar  
    16     7    22 1   
    17     8     9 ar  
    18     8    23 1   
    19     9    10 ar  
    20     9    24 1   
    21    10    11 ar  
    22    10    25 1   
    23    12    13 ar  
    24    13    16 ar  
    25    14    26 1   
    26    14    27 1   
    27    15    30 1   
    28    16    17 ar  
    29    18    28 1   
    30    18    29 1   
    31    19    30 1   
    32    20    30 1   
@<TRIPOS>SUBSTRUCTURE
     1 DX2         1 TEMP              0 ****  ****    0 ROOT
