@<TRIPOS>MOLECULE
DX2
   30    32     1     0     0
SMALL
abcg2


@<TRIPOS>ATOM
      1 C4          -2.2430    -1.4540     0.1410 ca         1 DX2       0.474900
      2 C6           0.9030     0.2840    -0.0200 cp         1 DX2       0.270500
      3 C7           0.4190     1.6390    -0.1750 ca         1 DX2       0.369900
      4 N1          -3.0500     1.1870    -0.0250 nb         1 DX2      -0.286000
      5 N3          -3.5290    -1.1590     0.1590 nb         1 DX2      -0.360000
      6 CAG          3.2380     0.6310     0.8350 ca         1 DX2      -0.095500
      7 CAE          4.5730     0.2560     0.8890 ca         1 DX2      -0.114000
      8 CAD          5.0300    -0.8110     0.1280 ca         1 DX2      -0.104000
      9 CAF          4.1410    -1.5080    -0.6810 ca         1 DX2      -0.114000
     10 CAH          2.8070    -1.1380    -0.7320 ca         1 DX2      -0.095500
     11 CAN          2.3400    -0.0580     0.0190 cp         1 DX2      -0.133500
     12 N5           0.0440    -0.6920     0.0580 nb         1 DX2      -0.584000
     13 C4A         -1.2630    -0.4150     0.0430 ca         1 DX2      -0.025000
     14 N4          -1.8550    -2.7250     0.2090 nv         1 DX2      -1.059900
     15 C2          -3.8650     0.1440     0.0790 ca         1 DX2       0.448900
     16 C8A         -1.7410     0.9030    -0.0450 ca         1 DX2       0.175000
     17 N8          -0.8690     1.9160    -0.1700 nb         1 DX2      -0.231000
     18 NAB          1.2760     2.6640    -0.3250 nv         1 DX2      -1.065900
     19 HN2         -5.5140     1.3290    -0.0660 hn         1 DX2       0.500000
     20 HN2A        -5.8390    -0.3570     0.0600 hn         1 DX2       0.500000
     21 HAG          2.8940     1.4520     1.4520 ha         1 DX2       0.121500
     22 HAE          5.2540     0.7940     1.5350 ha         1 DX2       0.114500
     23 HAD          6.0720    -1.1010     0.1680 ha         1 DX2       0.114000
     24 HAF          4.4900    -2.3430    -1.2760 ha         1 DX2       0.114500
     25 HAH          2.1190    -1.6830    -1.3660 ha         1 DX2       0.121500
     26 HN4         -2.5300    -3.4590     0.3320 hn         1 DX2       0.508500
     27 HN4A        -0.8770    -2.9550     0.2410 hn         1 DX2       0.508500
     28 HNAB         2.2370     2.5030    -0.5700 hn         1 DX2       0.495000
     29 HNAA         0.8940     3.5610    -0.5780 hn         1 DX2       0.495000
     30 N2          -5.1840     0.4010     0.1310 nv         1 DX2      -1.061900
@<TRIPOS>BOND
     1     1     5 ar  
     2     1    13 ar  
     3     1    14 1   
     4     2     3 ar  
     5     2    11 1   
     6     2    12 ar  
     7     3    17 ar  
     8     3    18 1   
     9     4    15 ar  
    10     4    16 ar  
    11     5    15 ar  
    12     6     7 ar  
    13     6    11 ar  
    14     6    21 1   
    15     7     8 ar  
    16     7    22 1   
    17     8     9 ar  
    18     8    23 1   
    19     9    10 ar  
    20     9    24 1   
    21    10    11 ar  
    22    10    25 1   
    23    12    13 ar  
    24    13    16 ar  
    25    14    26 1   
    26    14    27 1   
    27    15    30 1   
    28    16    17 ar  
    29    18    28 1   
    30    18    29 1   
    31    19    30 1   
    32    20    30 1   
@<TRIPOS>SUBSTRUCTURE
     1 DX2         1 TEMP              0 ****  ****    0 ROOT
