@<TRIPOS>MOLECULE
DX3
   29    30     1     0     0
SMALL
No Charge or Current Charge


@<TRIPOS>ATOM
      1 C4           0.4150     0.6890    -0.0040 ca         1 DX3       0.412900
      2 C5           0.3960    -0.7170     0.1230 ca         1 DX3      -0.183600
      3 C6           1.6570    -1.3170     0.3070 ca         1 DX3       0.466900
      4 N1           2.7960    -0.6190     0.3510 nb         1 DX3      -0.358000
      5 N3           1.5420     1.4080     0.0410 nb         1 DX3      -0.344000
      6 NAI         -0.7650     1.3910    -0.1910 nu         1 DX3      -0.906100
      7 CAO         -2.0960     0.7340    -0.2530 c6         1 DX3       0.171900
      8 CAB         -2.7450     1.1110    -1.6160 c3         1 DX3      -0.103100
      9 CAC         -2.9650     1.3210     0.8960 c3         1 DX3      -0.103100
     10 CAJ         -1.9720    -0.8280    -0.1100 c2         1 DX3       0.373300
     11 CAA         -3.2420    -1.6620    -0.1740 c3         1 DX3      -0.120400
     12 NAF         -0.8310    -1.4510     0.0590 ne         1 DX3      -0.518100
     13 C2           2.6620     0.7030     0.2180 ca         1 DX3       0.444900
     14 NAD          3.8060     1.4150     0.2610 nv         1 DX3      -1.053900
     15 NAE          1.8000    -2.6600     0.4420 nv         1 DX3      -1.052900
     16 HNAI        -0.6840     2.4040    -0.2700 hn         1 DX3       0.492000
     17 HAB         -2.1780     0.6860    -2.4530 hc         1 DX3       0.044867
     18 HABA        -3.7750     0.7440    -1.6920 hc         1 DX3       0.044867
     19 HABB        -2.7800     2.1980    -1.7570 hc         1 DX3       0.044867
     20 HAC         -3.0100     2.4160     0.8470 hc         1 DX3       0.044867
     21 HACA        -3.9980     0.9560     0.8540 hc         1 DX3       0.044867
     22 HACB        -2.5570     1.0490     1.8770 hc         1 DX3       0.044867
     23 HAA         -3.7470    -1.5480    -1.1390 hc         1 DX3       0.047700
     24 HAAA        -3.0270    -2.7300    -0.0470 hc         1 DX3       0.047700
     25 HAAB        -3.9470    -1.3800     0.6160 hc         1 DX3       0.047700
     26 HNAD         4.6830     0.9130     0.1550 hn         1 DX3       0.489000
     27 HNAA         3.7860     2.3770    -0.0680 hn         1 DX3       0.489000
     28 HNAE         0.9900    -3.2230     0.1970 hn         1 DX3       0.496000
     29 HNAB         2.7130    -3.0660     0.2600 hn         1 DX3       0.496000
@<TRIPOS>BOND
     1     1     2 ar  
     2     1     5 ar  
     3     1     6 1   
     4     2     3 ar  
     5     2    12 1   
     6     3     4 ar  
     7     3    15 1   
     8     4    13 ar  
     9     5    13 ar  
    10     6     7 1   
    11     6    16 1   
    12     7     8 1   
    13     7     9 1   
    14     7    10 1   
    15     8    17 1   
    16     8    18 1   
    17     8    19 1   
    18     9    20 1   
    19     9    21 1   
    20     9    22 1   
    21    10    11 1   
    22    10    12 2   
    23    11    23 1   
    24    11    24 1   
    25    11    25 1   
    26    13    14 1   
    27    14    26 1   
    28    14    27 1   
    29    15    28 1   
    30    15    29 1   
@<TRIPOS>SUBSTRUCTURE
     1 DX3         1 TEMP              0 ****  ****    0 ROOT
