@<TRIPOS>MOLECULE
DX3
   29    30     1     0     0
SMALL
bcc


@<TRIPOS>ATOM
      1 C4           0.3470     0.7150     0.2200 ca         1 DX3       0.741200
      2 C5           0.3300    -0.6750     0.0910 ca         1 DX3      -0.314200
      3 C6           1.5810    -1.3000     0.0030 ca         1 DX3       0.795200
      4 N1           2.7150    -0.5920     0.0220 nb         1 DX3      -0.884000
      5 N3           1.4680     1.4310     0.2710 nb         1 DX3      -0.870000
      6 NAI         -0.8430     1.3350     0.3540 nu         1 DX3      -0.850900
      7 CAO         -2.0660     0.7090    -0.1370 c6         1 DX3       0.171900
      8 CAB         -2.2120     0.9060    -1.6530 c3         1 DX3      -0.103100
      9 CAC         -3.2400     1.3540     0.5910 c3         1 DX3      -0.103100
     10 CAJ         -1.9630    -0.7910     0.1370 c2         1 DX3       0.373300
     11 CAA         -3.2290    -1.5710     0.2790 c3         1 DX3      -0.120400
     12 NAF         -0.8460    -1.4040     0.1740 ne         1 DX3      -0.518100
     13 C2           2.5990     0.7270     0.1690 ca         1 DX3       0.970900
     14 NAD          3.7520     1.4290     0.2530 nv         1 DX3      -0.943500
     15 NAE          1.6790    -2.6390    -0.0790 nv         1 DX3      -0.942500
     16 HNAI        -0.8250     2.3450     0.3610 hn         1 DX3       0.436800
     17 HAB         -1.3560     0.4910    -2.1880 hc         1 DX3       0.044867
     18 HABA        -3.1150     0.4250    -2.0310 hc         1 DX3       0.044867
     19 HABB        -2.2770     1.9700    -1.8890 hc         1 DX3       0.044867
     20 HAC         -3.2350     2.4320     0.4180 hc         1 DX3       0.044867
     21 HACA        -4.1930     0.9730     0.2280 hc         1 DX3       0.044867
     22 HACB        -3.1850     1.1840     1.6660 hc         1 DX3       0.044867
     23 HAA         -3.9200    -1.3770    -0.5450 hc         1 DX3       0.047700
     24 HAAA        -3.0120    -2.6360     0.3050 hc         1 DX3       0.047700
     25 HAAB        -3.7570    -1.3050     1.1970 hc         1 DX3       0.047700
     26 HNAD         4.6040     0.9790    -0.0340 hn         1 DX3       0.433800
     27 HNAA         3.7110     2.4260     0.1390 hn         1 DX3       0.433800
     28 HNAE         0.8530    -3.1780    -0.2720 hn         1 DX3       0.440800
     29 HNAB         2.5650    -3.0480    -0.3220 hn         1 DX3       0.440800
@<TRIPOS>BOND
     1     1     2 ar  
     2     1     5 ar  
     3     1     6 1   
     4     2     3 ar  
     5     2    12 1   
     6     3     4 ar  
     7     3    15 1   
     8     4    13 ar  
     9     5    13 ar  
    10     6     7 1   
    11     6    16 1   
    12     7     8 1   
    13     7     9 1   
    14     7    10 1   
    15     8    17 1   
    16     8    18 1   
    17     8    19 1   
    18     9    20 1   
    19     9    21 1   
    20     9    22 1   
    21    10    11 1   
    22    10    12 2   
    23    11    23 1   
    24    11    24 1   
    25    11    25 1   
    26    13    14 1   
    27    14    26 1   
    28    14    27 1   
    29    15    28 1   
    30    15    29 1   
@<TRIPOS>SUBSTRUCTURE
     1 DX3         1 TEMP              0 ****  ****    0 ROOT
