@<TRIPOS>MOLECULE
DX4
   16    17     1     0     0
SMALL
No Charge or Current Charge


@<TRIPOS>ATOM
      1 C4          -0.5810     1.2000    -0.0340 cc         1 DX4       0.143400
      2 C5          -0.7670    -0.1550    -0.0190 cd         1 DX4       0.137500
      3 C6           0.3820    -1.0420    -0.0430 cs         1 DX4       0.325900
      4 C8          -2.7350     0.7450     0.0250 cc         1 DX4       0.406400
      5 N1           1.5990    -0.3980    -0.0770 ns         1 DX4      -0.375400
      6 N3           0.6350     1.8250    -0.0700 nc         1 DX4      -0.695100
      7 C2           1.6300     0.9690    -0.0880 cd         1 DX4       0.722800
      8 N9          -1.8170     1.7710    -0.0070 na         1 DX4      -0.311500
      9 N7          -2.1270    -0.4380     0.0180 nd         1 DX4      -0.583000
     10 S6           0.2850    -2.7170    -0.0370 s          1 DX4      -0.515400
     11 H8          -3.8050     0.9210     0.0500 h5         1 DX4       0.064100
     12 HN2          3.5800     1.0430     0.3380 hn         1 DX4       0.509000
     13 HN2A         2.8010     2.5360     0.0550 hn         1 DX4       0.509000
     14 HN9         -2.0270     2.7580    -0.0090 hn         1 DX4       0.368000
     15 H5           2.4460    -0.9450    -0.1180 hn         1 DX4       0.342500
     16 N2           2.8240     1.5390    -0.1180 nv         1 DX4      -1.048200
@<TRIPOS>BOND
     1     1     2 2   
     2     1     6 1   
     3     1     8 1   
     4     2     3 1   
     5     2     9 1   
     6     3     5 1   
     7     3    10 2   
     8     4     8 1   
     9     4     9 2   
    10     4    11 1   
    11     5     7 1   
    12     5    15 1   
    13     6     7 2   
    14     7    16 1   
    15     8    14 1   
    16    12    16 1   
    17    13    16 1   
@<TRIPOS>SUBSTRUCTURE
     1 DX4         1 TEMP              0 ****  ****    0 ROOT
