@<TRIPOS>MOLECULE
DX4
   16    17     1     0     0
SMALL
bcc


@<TRIPOS>ATOM
      1 C4          -0.5830     1.1970    -0.0130 cc         1 DX4       0.128800
      2 C5          -0.7980    -0.1810    -0.0230 cd         1 DX4       0.202800
      3 C6           0.3180    -1.0300    -0.0310 cs         1 DX4       0.392900
      4 C8          -2.7140     0.7070    -0.0070 cc         1 DX4       0.406400
      5 N1           1.5010    -0.3220    -0.0300 ns         1 DX4      -0.442400
      6 N3           0.5840     1.8430    -0.0110 nc         1 DX4      -0.695100
      7 C2           1.6210     1.0380    -0.0230 cd         1 DX4       0.722800
      8 N9          -1.8200     1.7420    -0.0040 na         1 DX4      -0.311900
      9 N7          -2.1420    -0.4570    -0.0190 nd         1 DX4      -0.583000
     10 S6           0.3300    -2.6960    -0.0410 s          1 DX4      -0.515400
     11 H8          -3.7780     0.8860    -0.0010 h5         1 DX4       0.064100
     12 HN2          3.6690     0.9650     0.0980 hn         1 DX4       0.453800
     13 HN2A         2.9730     2.5330     0.0630 hn         1 DX4       0.453800
     14 HN9         -2.0430     2.7260     0.0070 hn         1 DX4       0.317700
     15 H5           2.3460    -0.8800    -0.0420 hn         1 DX4       0.342500
     16 N2           2.8590     1.5410    -0.0560 nv         1 DX4      -0.937800
@<TRIPOS>BOND
     1     1     2 2   
     2     1     6 1   
     3     1     8 1   
     4     2     3 1   
     5     2     9 1   
     6     3     5 1   
     7     3    10 2   
     8     4     8 1   
     9     4     9 2   
    10     4    11 1   
    11     5     7 1   
    12     5    15 1   
    13     6     7 2   
    14     7    16 1   
    15     8    14 1   
    16    12    16 1   
    17    13    16 1   
@<TRIPOS>SUBSTRUCTURE
     1 DX4         1 TEMP              0 ****  ****    0 ROOT
