@<TRIPOS>MOLECULE
DX6
   33    35     1     0     0
SMALL
abcg2


@<TRIPOS>ATOM
      1 CAF         20.8370    15.8410     8.8170 ca         1 DX6      -0.107000
      2 CAD         20.3660    16.1090    10.1000 ca         1 DX6      -0.109000
      3 CAC         19.4860    17.1640    10.3150 ca         1 DX6      -0.114000
      4 CAE         19.0850    17.9500     9.2370 ca         1 DX6      -0.109000
      5 CAG         19.5580    17.6760     7.9590 ca         1 DX6      -0.107000
      6 CAN         20.4390    16.6150     7.7280 ca         1 DX6      -0.072300
      7 CAI         20.9350    16.3280     6.3320 c3         1 DX6      -0.030100
      8 CAJ         19.8230    15.9410     5.3460 c3         1 DX6      -0.004100
      9 CAP         19.1710    14.6190     5.6170 cc         1 DX6      -0.052300
     10 CAH         19.6580    13.5720     6.3540 cd         1 DX6      -0.195000
     11 NAL         18.7510    12.5170     6.3140 na         1 DX6      -0.116000
     12 CAR         17.6820    12.8670     5.5600 cd         1 DX6       0.168400
     13 NAK         16.6160    12.0710     5.3070 nd         1 DX6      -0.710100
     14 CAS         17.9000    14.1770     5.1020 cc         1 DX6      -0.303600
     15 CAQ         16.8990    14.7690     4.2840 c          1 DX6       0.620600
     16 OAB         16.8750    15.8960     3.7800 o          1 DX6      -0.558000
     17 NAM         15.8150    13.8980     4.0580 ns         1 DX6      -0.454400
     18 CAO         15.7000    12.6260     4.5500 cc         1 DX6       0.716800
     19 NAA         14.5540    11.9570     4.2580 nv         1 DX6      -1.032200
     20 HAF         21.5230    15.0160     8.6590 ha         1 DX6       0.108000
     21 HAD         20.6880    15.4920    10.9300 ha         1 DX6       0.109500
     22 HAC         19.1180    17.3740    11.3110 ha         1 DX6       0.110000
     23 HAE         18.4050    18.7780     9.3930 ha         1 DX6       0.109500
     24 HAG         19.2390    18.2960     7.1290 ha         1 DX6       0.108000
     25 HAI         21.4310    17.2200     5.9400 hc         1 DX6       0.045200
     26 HAIA        21.6930    15.5420     6.3670 hc         1 DX6       0.045200
     27 HAJ         19.0580    16.7200     5.3410 hc         1 DX6       0.061200
     28 HAJA        20.2400    15.9370     4.3330 hc         1 DX6       0.061200
     29 HAH         20.5680    13.4780     6.9190 h4         1 DX6       0.150000
     30 HNAL        18.8640    11.6310     6.7810 hn         1 DX6       0.358000
     31 HNAM        15.0680    14.2730     3.4880 hn         1 DX6       0.322500
     32 HNAA        14.5640    10.9650     4.4410 hn         1 DX6       0.489500
     33 HNAB        14.0150    12.2450     3.4550 hn         1 DX6       0.489500
@<TRIPOS>BOND
     1     1     2 ar  
     2     1     6 ar  
     3     1    20 1   
     4     2     3 ar  
     5     2    21 1   
     6     3     4 ar  
     7     3    22 1   
     8     4     5 ar  
     9     4    23 1   
    10     5     6 ar  
    11     5    24 1   
    12     6     7 1   
    13     7     8 1   
    14     7    25 1   
    15     7    26 1   
    16     8     9 1   
    17     8    27 1   
    18     8    28 1   
    19     9    10 2   
    20     9    14 1   
    21    10    11 1   
    22    10    29 1   
    23    11    12 1   
    24    11    30 1   
    25    12    13 1   
    26    12    14 2   
    27    13    18 2   
    28    14    15 1   
    29    15    16 2   
    30    15    17 1   
    31    17    18 1   
    32    17    31 1   
    33    18    19 1   
    34    19    32 1   
    35    19    33 1   
@<TRIPOS>SUBSTRUCTURE
     1 DX6         1 TEMP              0 ****  ****    0 ROOT
