@<TRIPOS>MOLECULE
DX6
   33    35     1     0     0
SMALL
No Charge or Current Charge


@<TRIPOS>ATOM
      1 CAF         21.1060    15.9520     8.7560 ca         1 DX6      -0.107000
      2 CAD         20.7440    16.1890    10.0930 ca         1 DX6      -0.109000
      3 CAC         19.7110    17.0920    10.3930 ca         1 DX6      -0.114000
      4 CAE         19.0430    17.7610     9.3550 ca         1 DX6      -0.109000
      5 CAG         19.4050    17.5240     8.0170 ca         1 DX6      -0.107000
      6 CAN         20.4330    16.6110     7.7060 ca         1 DX6      -0.072300
      7 CAI         20.8360    16.3520     6.2530 c3         1 DX6      -0.030100
      8 CAJ         19.6690    15.9010     5.3400 c3         1 DX6      -0.004100
      9 CAP         19.0210    14.5860     5.7170 cc         1 DX6      -0.052300
     10 CAH         19.4500    13.6510     6.6360 cd         1 DX6      -0.195000
     11 NAL         18.5160    12.6010     6.6320 na         1 DX6      -0.116000
     12 CAR         17.5280    12.8910     5.7080 cd         1 DX6       0.168400
     13 NAK         16.4120    12.1420     5.3630 nd         1 DX6      -0.710100
     14 CAS         17.8210    14.0910     5.1400 cc         1 DX6      -0.303600
     15 CAQ         16.9720    14.6910     4.1070 c          1 DX6       0.620600
     16 OAB         17.1590    15.7570     3.5430 o          1 DX6      -0.558000
     17 NAM         15.9120    13.9030     3.8290 ns         1 DX6      -0.454400
     18 CAO         15.6830    12.7210     4.4360 cc         1 DX6       0.716800
     19 NAA         14.6020    12.0680     4.0460 nv         1 DX6      -1.032200
     20 HAF         21.9100    15.2530     8.5370 ha         1 DX6       0.108000
     21 HAD         21.2660    15.6730    10.8970 ha         1 DX6       0.109500
     22 HAC         19.4320    17.2760    11.4290 ha         1 DX6       0.110000
     23 HAE         18.2470    18.4650     9.5860 ha         1 DX6       0.109500
     24 HAG         18.8850    18.0570     7.2250 ha         1 DX6       0.108000
     25 HAI         21.2660    17.2690     5.8340 hc         1 DX6       0.045200
     26 HAIA        21.6310    15.5990     6.2010 hc         1 DX6       0.045200
     27 HAJ         18.9110    16.6920     5.3220 hc         1 DX6       0.061200
     28 HAJA        20.0480    15.8250     4.3130 hc         1 DX6       0.061200
     29 HAH         20.3220    13.6480     7.2780 h4         1 DX6       0.150000
     30 HNAL        18.5490    11.7640     7.2010 hn         1 DX6       0.358000
     31 HNAM        15.2590    14.2450     3.1450 hn         1 DX6       0.322500
     32 HNAA        14.5700    11.1140     4.3810 hn         1 DX6       0.489500
     33 HNAB        14.3070    12.1980     3.0860 hn         1 DX6       0.489500
@<TRIPOS>BOND
     1     1     2 ar  
     2     1     6 ar  
     3     1    20 1   
     4     2     3 ar  
     5     2    21 1   
     6     3     4 ar  
     7     3    22 1   
     8     4     5 ar  
     9     4    23 1   
    10     5     6 ar  
    11     5    24 1   
    12     6     7 1   
    13     7     8 1   
    14     7    25 1   
    15     7    26 1   
    16     8     9 1   
    17     8    27 1   
    18     8    28 1   
    19     9    10 2   
    20     9    14 1   
    21    10    11 1   
    22    10    29 1   
    23    11    12 1   
    24    11    30 1   
    25    12    13 1   
    26    12    14 2   
    27    13    18 2   
    28    14    15 1   
    29    15    16 2   
    30    15    17 1   
    31    17    18 1   
    32    17    31 1   
    33    18    19 1   
    34    19    32 1   
    35    19    33 1   
@<TRIPOS>SUBSTRUCTURE
     1 DX6         1 TEMP              0 ****  ****    0 ROOT
