@<TRIPOS>MOLECULE
DX7
   28    30     1     0     0
SMALL
abcg2


@<TRIPOS>ATOM
      1 CAH         15.8200   -15.0100     8.5310 ca         1 DX7      -0.093000
      2 CAF         15.0020   -15.0950     9.6490 ca         1 DX7      -0.107000
      3 CAE         15.3050   -14.3690    10.7970 ca         1 DX7      -0.100000
      4 CAG         16.4340   -13.5550    10.8200 ca         1 DX7      -0.107000
      5 CAI         17.2580   -13.4710     9.7060 ca         1 DX7      -0.093000
      6 CAN         16.9620   -14.2000     8.5460 ca         1 DX7      -0.032000
      7 CAP         17.8310   -14.1160     7.3790 cc         1 DX7      -0.060000
      8 NAL         18.5440   -12.9750     7.0800 na         1 DX7      -0.108000
      9 CAR         19.3020   -13.1550     5.9590 cc         1 DX7       0.179400
     10 NAJ         20.0910   -12.2150     5.4090 nc         1 DX7      -0.719100
     11 CAM         20.7380   -12.6190     4.3330 cd         1 DX7       0.738800
     12 NAB         21.5940   -11.7870     3.7090 nv         1 DX7      -1.045200
     13 NAK         20.6080   -13.8840     3.8240 ns         1 DX7      -0.455400
     14 CAQ         19.7910   -14.8990     4.3510 c          1 DX7       0.618600
     15 OAC         19.7520   -16.0020     3.8080 o          1 DX7      -0.527000
     16 CAS         19.0910   -14.4590     5.5100 cd         1 DX7      -0.275600
     17 CAO         18.1550   -15.0680     6.4150 cd         1 DX7      -0.006000
     18 CAD         17.7090   -16.4010     6.3750 ch         1 DX7       0.359000
     19 NAA         17.3540   -17.5010     6.3350 n1         1 DX7      -0.455000
     20 HAH         15.5580   -15.5560     7.6350 ha         1 DX7       0.118500
     21 HAF         14.1200   -15.7220     9.6190 ha         1 DX7       0.118000
     22 HAE         14.6650   -14.4350    11.6680 ha         1 DX7       0.116000
     23 HAG         16.6790   -12.9900    11.7100 ha         1 DX7       0.118000
     24 HAI         18.1470   -12.8540     9.7480 ha         1 DX7       0.118500
     25 HNAL        18.4650   -12.0980     7.5730 hn         1 DX7       0.365000
     26 HNAB        21.9340   -11.9990     2.7850 hn         1 DX7       0.503500
     27 HNAA        21.5870   -10.8200     3.9890 hn         1 DX7       0.503500
     28 HNAK        21.1410   -14.1400     3.0020 hn         1 DX7       0.325500
@<TRIPOS>BOND
     1     1     2 ar  
     2     1     6 ar  
     3     1    20 1   
     4     2     3 ar  
     5     2    21 1   
     6     3     4 ar  
     7     3    22 1   
     8     4     5 ar  
     9     4    23 1   
    10     5     6 ar  
    11     5    24 1   
    12     6     7 1   
    13     7     8 1   
    14     7    17 2   
    15     8     9 1   
    16     8    25 1   
    17     9    10 1   
    18     9    16 2   
    19    10    11 2   
    20    11    12 1   
    21    11    13 1   
    22    12    26 1   
    23    12    27 1   
    24    13    14 1   
    25    13    28 1   
    26    14    15 2   
    27    14    16 1   
    28    16    17 1   
    29    17    18 1   
    30    18    19 3   
@<TRIPOS>SUBSTRUCTURE
     1 DX7         1 TEMP              0 ****  ****    0 ROOT
