@<TRIPOS>MOLECULE
DX7
   28    30     1     0     0
SMALL
No Charge or Current Charge


@<TRIPOS>ATOM
      1 CAH         15.7420   -14.8570     8.4100 ca         1 DX7      -0.093000
      2 CAF         14.8980   -15.0250     9.5220 ca         1 DX7      -0.107000
      3 CAE         15.2610   -14.4890    10.7680 ca         1 DX7      -0.100000
      4 CAG         16.4650   -13.7780    10.8990 ca         1 DX7      -0.107000
      5 CAI         17.3080   -13.6100     9.7870 ca         1 DX7      -0.093000
      6 CAN         16.9610   -14.1570     8.5350 ca         1 DX7      -0.032000
      7 CAP         17.8480   -13.9570     7.3860 cc         1 DX7      -0.060000
      8 NAL         18.5330   -12.7870     7.0550 na         1 DX7      -0.108000
      9 CAR         19.3140   -13.0220     5.9400 cc         1 DX7       0.179400
     10 NAJ         20.1300   -12.1430     5.2750 nc         1 DX7      -0.719100
     11 CAM         20.7490   -12.6930     4.2610 cd         1 DX7       0.738800
     12 NAB         21.5420   -11.8840     3.5810 nv         1 DX7      -1.045200
     13 NAK         20.6650   -13.9690     3.8450 ns         1 DX7      -0.455400
     14 CAQ         19.8870   -14.8980     4.4540 c          1 DX7       0.618600
     15 OAC         19.8230   -16.0550     4.0740 o          1 DX7      -0.527000
     16 CAS         19.1550   -14.3330     5.5990 cd         1 DX7      -0.275600
     17 CAO         18.2470   -14.9480     6.5080 cd         1 DX7      -0.006000
     18 CAD         17.8560   -16.3210     6.5310 ch         1 DX7       0.359000
     19 NAA         17.5190   -17.4400     6.5690 n1         1 DX7      -0.455000
     20 HAH         15.4340   -15.2590     7.4470 ha         1 DX7       0.118500
     21 HAF         13.9600   -15.5660     9.4150 ha         1 DX7       0.118000
     22 HAE         14.6070   -14.6180    11.6280 ha         1 DX7       0.116000
     23 HAG         16.7460   -13.3580    11.8630 ha         1 DX7       0.118000
     24 HAI         18.2400   -13.0620     9.9030 ha         1 DX7       0.118500
     25 HNAL        18.4640   -11.9000     7.5350 hn         1 DX7       0.365000
     26 HNAB        21.6470   -12.0760     2.5930 hn         1 DX7       0.503500
     27 HNAA        21.4230   -10.9080     3.8190 hn         1 DX7       0.503500
     28 HNAK        21.2130   -14.2840     3.0630 hn         1 DX7       0.325500
@<TRIPOS>BOND
     1     1     2 ar  
     2     1     6 ar  
     3     1    20 1   
     4     2     3 ar  
     5     2    21 1   
     6     3     4 ar  
     7     3    22 1   
     8     4     5 ar  
     9     4    23 1   
    10     5     6 ar  
    11     5    24 1   
    12     6     7 1   
    13     7     8 1   
    14     7    17 2   
    15     8     9 1   
    16     8    25 1   
    17     9    10 1   
    18     9    16 2   
    19    10    11 2   
    20    11    12 1   
    21    11    13 1   
    22    12    26 1   
    23    12    27 1   
    24    13    14 1   
    25    13    28 1   
    26    14    15 2   
    27    14    16 1   
    28    16    17 1   
    29    17    18 1   
    30    18    19 3   
@<TRIPOS>SUBSTRUCTURE
     1 DX7         1 TEMP              0 ****  ****    0 ROOT
