@<TRIPOS>MOLECULE
DX8
   32    34     1     0     0
SMALL
abcg2


@<TRIPOS>ATOM
      1 CAA        -14.2450    16.4350    11.7650 c3         1 DX8       0.148900
      2 OAM        -13.8540    16.9570    10.4940 os         1 DX8      -0.344100
      3 CAO        -14.6180    16.6660     9.4150 ca         1 DX8       0.150100
      4 CAG        -15.7770    15.8880     9.4570 ca         1 DX8      -0.168500
      5 CAI        -16.4910    15.6540     8.2890 ca         1 DX8      -0.054500
      6 CAF        -14.1880    17.1940     8.1920 ca         1 DX8      -0.168500
      7 CAH        -14.9040    16.9520     7.0370 ca         1 DX8      -0.054500
      8 CAP        -16.0750    16.1790     7.0620 ca         1 DX8      -0.074000
      9 CAR        -16.8350    15.9290     5.8460 cc         1 DX8      -0.048000
     10 NAL        -17.5590    14.7690     5.6660 na         1 DX8      -0.111000
     11 CAT        -18.1880    14.7710     4.4540 cc         1 DX8       0.177400
     12 NAJ        -18.9470    13.7640     3.9840 nc         1 DX8      -0.718100
     13 CAN        -19.4550    13.9870     2.7890 cd         1 DX8       0.737800
     14 NAC        -20.2650    13.0740     2.2190 nv         1 DX8      -1.046200
     15 NAK        -19.2240    15.1440     2.0910 ns         1 DX8      -0.455400
     16 CAS        -18.4340    16.2210     2.5300 c          1 DX8       0.618600
     17 OAD        -18.2950    17.2130     1.8160 o          1 DX8      -0.528000
     18 CAU        -17.8820    15.9750     3.8200 cd         1 DX8      -0.272600
     19 CAQ        -17.0220    16.7110     4.7080 cd         1 DX8      -0.012000
     20 CAE        -16.5290    18.0110     4.5030 ch         1 DX8       0.360000
     21 NAB        -16.1320    19.0840     4.3290 n1         1 DX8      -0.457000
     22 HAA        -13.4970    16.7840    12.4730 h1         1 DX8       0.044033
     23 HAAA       -15.2300    16.8090    12.0540 h1         1 DX8       0.044033
     24 HAAB       -14.2590    15.3420    11.7510 h1         1 DX8       0.044033
     25 HAG        -16.1360    15.4720    10.3860 ha         1 DX8       0.127000
     26 HAI        -17.4000    15.0700     8.3490 ha         1 DX8       0.119500
     27 HAF        -13.2810    17.7840     8.1660 ha         1 DX8       0.127000
     28 HAH        -14.5370    17.3480     6.1000 ha         1 DX8       0.119500
     29 HNAL       -17.5650    13.9880     6.3060 hn         1 DX8       0.363000
     30 HNAC       -20.4970    13.1330     1.2410 hn         1 DX8       0.503500
     31 HNAA       -20.3200    12.1680     2.6540 hn         1 DX8       0.503500
     32 HNAK       -19.6520    15.2610     1.1810 hn         1 DX8       0.325500
@<TRIPOS>BOND
     1     1     2 1   
     2     1    22 1   
     3     1    23 1   
     4     1    24 1   
     5     2     3 1   
     6     3     4 ar  
     7     3     6 ar  
     8     4     5 ar  
     9     4    25 1   
    10     5     8 ar  
    11     5    26 1   
    12     6     7 ar  
    13     6    27 1   
    14     7     8 ar  
    15     7    28 1   
    16     8     9 1   
    17     9    10 1   
    18     9    19 2   
    19    10    11 1   
    20    10    29 1   
    21    11    12 1   
    22    11    18 2   
    23    12    13 2   
    24    13    14 1   
    25    13    15 1   
    26    14    30 1   
    27    14    31 1   
    28    15    16 1   
    29    15    32 1   
    30    16    17 2   
    31    16    18 1   
    32    18    19 1   
    33    19    20 1   
    34    20    21 3   
@<TRIPOS>SUBSTRUCTURE
     1 DX8         1 TEMP              0 ****  ****    0 ROOT
