@<TRIPOS>MOLECULE
DX8
   32    34     1     0     0
SMALL
No Charge or Current Charge


@<TRIPOS>ATOM
      1 CAA        -14.1990    16.6710    11.8150 c3         1 DX8       0.148900
      2 OAM        -13.7910    16.9870    10.4720 os         1 DX8      -0.344100
      3 CAO        -14.5610    16.6620     9.3740 ca         1 DX8       0.150100
      4 CAG        -15.7980    15.9930     9.4810 ca         1 DX8      -0.168500
      5 CAI        -16.5370    15.6880     8.3240 ca         1 DX8      -0.054500
      6 CAF        -14.0760    17.0130     8.1050 ca         1 DX8      -0.168500
      7 CAH        -14.8140    16.7080     6.9490 ca         1 DX8      -0.054500
      8 CAP        -16.0580    16.0520     7.0490 ca         1 DX8      -0.074000
      9 CAR        -16.8400    15.7110     5.8580 cc         1 DX8      -0.048000
     10 NAL        -17.5190    14.5160     5.6200 na         1 DX8      -0.111000
     11 CAT        -18.1880    14.6090     4.4150 cc         1 DX8       0.177400
     12 NAJ        -18.9600    13.6590     3.7970 nc         1 DX8      -0.718100
     13 CAN        -19.4690    14.0760     2.6640 cd         1 DX8       0.737800
     14 NAC        -20.2140    13.1940     2.0240 nv         1 DX8      -1.046200
     15 NAK        -19.3140    15.2840     2.0930 ns         1 DX8      -0.455400
     16 CAS        -18.5730    16.2760     2.6460 c          1 DX8       0.618600
     17 OAD        -18.4450    17.3710     2.1230 o          1 DX8      -0.528000
     18 CAU        -17.9650    15.8610     3.9200 cd         1 DX8      -0.272600
     19 CAQ        -17.1300    16.5810     4.8230 cd         1 DX8      -0.012000
     20 CAE        -16.7080    17.9390     4.7010 ch         1 DX8       0.360000
     21 NAB        -16.3450    19.0470     4.6220 n1         1 DX8      -0.457000
     22 HAA        -13.4440    17.0180    12.5330 h1         1 DX8       0.044033
     23 HAAA       -15.1500    17.1600    12.0600 h1         1 DX8       0.044033
     24 HAAB       -14.3150    15.5880    11.9430 h1         1 DX8       0.044033
     25 HAG        -16.2020    15.7030    10.4470 ha         1 DX8       0.127000
     26 HAI        -17.4920    15.1760     8.4210 ha         1 DX8       0.119500
     27 HAF        -13.1180    17.5190     8.0170 ha         1 DX8       0.127000
     28 HAH        -14.4070    16.9690     5.9750 ha         1 DX8       0.119500
     29 HNAL       -17.5170    13.7000     6.2170 hn         1 DX8       0.363000
     30 HNAC       -20.2230    13.2530     1.0140 hn         1 DX8       0.503500
     31 HNAA       -20.1430    12.2560     2.3990 hn         1 DX8       0.503500
     32 HNAK       -19.7780    15.4990     1.2270 hn         1 DX8       0.325500
@<TRIPOS>BOND
     1     1     2 1   
     2     1    22 1   
     3     1    23 1   
     4     1    24 1   
     5     2     3 1   
     6     3     4 ar  
     7     3     6 ar  
     8     4     5 ar  
     9     4    25 1   
    10     5     8 ar  
    11     5    26 1   
    12     6     7 ar  
    13     6    27 1   
    14     7     8 ar  
    15     7    28 1   
    16     8     9 1   
    17     9    10 1   
    18     9    19 2   
    19    10    11 1   
    20    10    29 1   
    21    11    12 1   
    22    11    18 2   
    23    12    13 2   
    24    13    14 1   
    25    13    15 1   
    26    14    30 1   
    27    14    31 1   
    28    15    16 1   
    29    15    32 1   
    30    16    17 2   
    31    16    18 1   
    32    18    19 1   
    33    19    20 1   
    34    20    21 3   
@<TRIPOS>SUBSTRUCTURE
     1 DX8         1 TEMP              0 ****  ****    0 ROOT
