@<TRIPOS>MOLECULE
DX9
   60    63     1     0     0
SMALL
No Charge or Current Charge


@<TRIPOS>ATOM
      1 C12          2.3080     0.9100     0.4430 ca         1 DX9      -0.109000
      2 C13          2.1120     1.8700     1.4590 ca         1 DX9      -0.047300
      3 C11          1.6200     1.4510     2.7110 ca         1 DX9      -0.077000
      4 C10          1.3050     0.1000     2.9390 ca         1 DX9      -0.124000
      5 C7           1.4710    -0.8460     1.9120 ca         1 DX9      -0.036000
      6 C6           1.1310    -2.1920     2.1240 ca         1 DX9      -0.106000
      7 C5           1.2820    -3.1330     1.0910 ca         1 DX9      -0.112000
      8 C4           1.7680    -2.7410    -0.1810 ca         1 DX9      -0.169900
      9 C9           2.1250    -1.3850    -0.3730 ca         1 DX9      -0.036000
     10 C8           1.9750    -0.4410     0.6610 ca         1 DX9      -0.044000
     11 C2           1.9580    -3.7300    -1.2950 ce         1 DX9       0.665800
     12 N2           2.6030    -3.4730    -2.3570 n2         1 DX9      -0.831100
     13 N1           1.3610    -4.9360    -1.1930 nv         1 DX9      -1.077200
     14 C14          2.3610     3.3610     1.1980 c3         1 DX9      -0.019100
     15 C22          1.6540     5.4320    -0.1650 c          1 DX9       0.723000
     16 O23          0.9990     6.0360     0.6720 o          1 DX9      -0.721000
     17 O24          2.2670     5.9900    -1.0650 o          1 DX9      -0.721000
     18 C15          1.6970     3.8860    -0.1110 c3         1 DX9      -0.155400
     19 N28         -3.5210    -2.5280    -0.3070 nh         1 DX9      -0.783600
     20 C27         -4.0680    -1.2870    -0.9310 c5         1 DX9       0.234800
     21 C26         -2.7960    -0.3830    -0.9700 c5         1 DX9       0.161300
     22 C30         -1.9860    -0.8960     0.2630 c5         1 DX9      -0.126400
     23 C29         -2.1040    -2.4300     0.0990 c5         1 DX9       0.235800
     24 C31         -4.1100    -3.7590    -0.5480 c2         1 DX9       0.642200
     25 N32         -5.2980    -3.7890    -1.0120 n2         1 DX9      -0.864100
     26 C33         -3.3750    -5.0260    -0.1730 c3         1 DX9      -0.187400
     27 C21          0.0520     2.5910    -1.5580 ca         1 DX9      -0.077000
     28 C20         -1.1390     1.8650    -1.7250 ca         1 DX9      -0.176000
     29 C17         -0.6650     3.2580     0.6680 ca         1 DX9      -0.077000
     30 C18         -1.8570     2.5340     0.5000 ca         1 DX9      -0.176000
     31 C19         -2.0770     1.8020    -0.6760 ca         1 DX9       0.101100
     32 O25         -3.2000     1.0050    -0.7560 os         1 DX9      -0.348100
     33 C16          0.3140     3.2640    -0.3470 ca         1 DX9      -0.038300
     34 H12          2.6870     1.2200    -0.5270 ha         1 DX9       0.120000
     35 H11          1.4610     2.1750     3.5070 ha         1 DX9       0.122000
     36 H10          0.9170    -0.2050     3.9080 ha         1 DX9       0.103000
     37 H6           0.7500    -2.5130     3.0910 ha         1 DX9       0.104000
     38 H5           1.0240    -4.1690     1.2980 ha         1 DX9       0.104000
     39 H9           2.5120    -1.0560    -1.3350 ha         1 DX9       0.133000
     40 H227        -4.4460    -1.4510    -1.9490 h1         1 DX9       0.066200
     41 HN21         2.7570    -4.3560    -2.8530 hn         1 DX9       0.359400
     42 HN12         0.6640    -5.0090    -0.4640 hn         1 DX9       0.455000
     43 HN11         1.1360    -5.4030    -2.0630 hn         1 DX9       0.455000
     44 H141         1.9860     3.9470     2.0460 hc         1 DX9       0.059200
     45 H142         3.4400     3.5580     1.1550 hc         1 DX9       0.059200
     46 H15          2.3500     3.5670    -0.9320 hc         1 DX9       0.043700
     47 H127        -4.8740    -0.8530    -0.3230 h1         1 DX9       0.066200
     48 H130        -0.9420    -0.5670     0.2530 hc         1 DX9       0.066700
     49 H129        -1.8890    -2.9560     1.0390 h1         1 DX9       0.034700
     50 H229        -1.4330    -2.8090    -0.6840 h1         1 DX9       0.034700
     51 HN31        -5.5810    -4.7730    -1.0910 hn         1 DX9       0.371400
     52 H230        -2.4310    -0.5640     1.2080 hc         1 DX9       0.066700
     53 H331        -3.1240    -5.0340     0.8940 hc         1 DX9       0.048367
     54 H332        -3.9800    -5.9180    -0.3730 hc         1 DX9       0.048367
     55 H333        -2.4470    -5.1270    -0.7460 hc         1 DX9       0.048367
     56 H21          0.7920     2.5910    -2.3560 ha         1 DX9       0.124500
     57 H20         -1.3120     1.3340    -2.6570 ha         1 DX9       0.103500
     58 H17         -0.4830     3.7760     1.6070 ha         1 DX9       0.124500
     59 H18         -2.5870     2.4970     1.3050 ha         1 DX9       0.103500
     60 H26         -2.2520    -0.5110    -1.9150 h1         1 DX9       0.051700
@<TRIPOS>BOND
     1     1     2 ar  
     2     1    10 ar  
     3     1    34 1   
     4     2     3 ar  
     5     2    14 1   
     6     3     4 ar  
     7     3    35 1   
     8     4     5 ar  
     9     4    36 1   
    10     5     6 ar  
    11     5    10 ar  
    12     6     7 ar  
    13     6    37 1   
    14     7     8 ar  
    15     7    38 1   
    16     8     9 ar  
    17     8    11 1   
    18     9    10 ar  
    19     9    39 1   
    20    11    12 2   
    21    11    13 1   
    22    12    41 1   
    23    13    42 1   
    24    13    43 1   
    25    14    18 1   
    26    14    44 1   
    27    14    45 1   
    28    15    16 1   
    29    15    17 1   
    30    15    18 1   
    31    18    33 1   
    32    18    46 1   
    33    19    20 1   
    34    19    23 1   
    35    19    24 1   
    36    20    21 1   
    37    20    40 1   
    38    20    47 1   
    39    21    22 1   
    40    21    32 1   
    41    21    60 1   
    42    22    23 1   
    43    22    48 1   
    44    22    52 1   
    45    23    49 1   
    46    23    50 1   
    47    24    25 2   
    48    24    26 1   
    49    25    51 1   
    50    26    53 1   
    51    26    54 1   
    52    26    55 1   
    53    27    28 ar  
    54    27    33 ar  
    55    27    56 1   
    56    28    31 ar  
    57    28    57 1   
    58    29    30 ar  
    59    29    33 ar  
    60    29    58 1   
    61    30    31 ar  
    62    30    59 1   
    63    31    32 1   
@<TRIPOS>SUBSTRUCTURE
     1 DX9         1 TEMP              0 ****  ****    0 ROOT
