@<TRIPOS>MOLECULE
DX9
   60    63     1     0     0
SMALL
bcc


@<TRIPOS>ATOM
      1 C12          3.5140     0.8830     0.2740 ca         1 DX9      -0.127000
      2 C13          2.5070     1.5390     0.9340 ca         1 DX9      -0.047300
      3 C11          1.6430     0.7850     1.7660 ca         1 DX9      -0.095000
      4 C10          1.7960    -0.5640     1.9180 ca         1 DX9      -0.142000
      5 C7           2.8280    -1.2530     1.2380 ca         1 DX9      -0.036000
      6 C6           3.0220    -2.6470     1.3600 ca         1 DX9      -0.124000
      7 C5           4.0250    -3.2790     0.6780 ca         1 DX9      -0.130000
      8 C4           4.9020    -2.5460    -0.1590 ca         1 DX9      -0.169900
      9 C9           4.7370    -1.1890    -0.2780 ca         1 DX9      -0.054000
     10 C8           3.7020    -0.5120     0.4030 ca         1 DX9      -0.044000
     11 C2           6.0040    -3.2180    -0.9030 ce         1 DX9       0.665800
     12 N2           7.0520    -2.5460    -1.1890 n2         1 DX9      -0.831100
     13 N1           5.7970    -4.5400    -1.1750 nv         1 DX9      -0.966800
     14 C14          2.2870     3.0110     0.7390 c3         1 DX9      -0.019100
     15 C22          1.2340     4.8100    -0.7640 c          1 DX9       0.933600
     16 O23          1.3540     5.5960     0.1970 o          1 DX9      -0.826300
     17 O24          0.9740     5.1130    -1.9450 o          1 DX9      -0.826300
     18 C15          1.3840     3.2980    -0.4730 c3         1 DX9      -0.155400
     19 N28         -5.7590    -1.9150    -0.0880 nh         1 DX9      -0.783600
     20 C27         -5.5940    -0.4810    -0.0010 c5         1 DX9       0.234800
     21 C26         -4.0980    -0.2920    -0.2360 c5         1 DX9       0.138100
     22 C30         -3.4910    -1.5670     0.3440 c5         1 DX9      -0.126400
     23 C29         -4.4920    -2.6310    -0.0850 c5         1 DX9       0.235800
     24 C31         -6.9830    -2.4800    -0.2190 c2         1 DX9       0.642200
     25 N32         -8.0270    -1.7350    -0.1950 n2         1 DX9      -0.864100
     26 C33         -6.9970    -3.9780    -0.3700 c3         1 DX9      -0.187400
     27 C21         -0.3300     1.5150    -0.9820 ca         1 DX9      -0.095000
     28 C20         -1.5560     0.8860    -0.7870 ca         1 DX9      -0.194000
     29 C17         -0.9050     3.1910     0.6020 ca         1 DX9      -0.095000
     30 C18         -2.1290     2.5830     0.8100 ca         1 DX9      -0.194000
     31 C19         -2.4660     1.4190     0.1170 ca         1 DX9       0.101100
     32 O25         -3.6880     0.9030     0.3880 os         1 DX9      -0.324900
     33 C16          0.0250     2.6690    -0.2990 ca         1 DX9      -0.038300
     34 H12          4.1900     1.4400    -0.3670 ha         1 DX9       0.138000
     35 H11          0.8430     1.2950     2.2890 ha         1 DX9       0.140000
     36 H10          1.1240    -1.1220     2.5590 ha         1 DX9       0.121000
     37 H6           2.3650    -3.2170     2.0060 ha         1 DX9       0.122000
     38 H5           4.1590    -4.3460     0.8050 ha         1 DX9       0.122000
     39 H9           5.4070    -0.6240    -0.9150 ha         1 DX9       0.151000
     40 H227        -6.2020     0.0340    -0.7470 h1         1 DX9       0.066200
     41 HN21         7.7070    -3.1020    -1.7320 hn         1 DX9       0.359400
     42 HN12         4.8490    -4.8650    -1.2760 hn         1 DX9       0.399800
     43 HN11         6.4420    -4.9870    -1.8070 hn         1 DX9       0.399800
     44 H141         1.8480     3.4510     1.6360 hc         1 DX9       0.059200
     45 H142         3.2490     3.5060     0.5830 hc         1 DX9       0.059200
     46 H15          1.8530     2.8360    -1.3470 hc         1 DX9       0.043700
     47 H127        -5.8810    -0.0960     0.9840 h1         1 DX9       0.066200
     48 H130        -2.4840    -1.7830    -0.0080 hc         1 DX9       0.066700
     49 H129        -4.5010    -3.4760     0.6050 h1         1 DX9       0.034700
     50 H229        -4.2460    -3.0190    -1.0800 h1         1 DX9       0.034700
     51 HN31        -8.8560    -2.3050    -0.3090 hn         1 DX9       0.371400
     52 H230        -3.4620    -1.4880     1.4340 hc         1 DX9       0.066700
     53 H331        -6.6610    -4.4660     0.5460 hc         1 DX9       0.048367
     54 H332        -8.0040    -4.3270    -0.5880 hc         1 DX9       0.048367
     55 H333        -6.3410    -4.3110    -1.1740 hc         1 DX9       0.048367
     56 H21          0.3700     1.0730    -1.6820 ha         1 DX9       0.142500
     57 H20         -1.7660    -0.0180    -1.3430 ha         1 DX9       0.121500
     58 H17         -0.6680     4.0930     1.1530 ha         1 DX9       0.142500
     59 H18         -2.8360     3.0090     1.5120 ha         1 DX9       0.121500
     60 H26         -3.9100    -0.2430    -1.3160 h1         1 DX9       0.051700
@<TRIPOS>BOND
     1     1     2 ar  
     2     1    10 ar  
     3     1    34 1   
     4     2     3 ar  
     5     2    14 1   
     6     3     4 ar  
     7     3    35 1   
     8     4     5 ar  
     9     4    36 1   
    10     5     6 ar  
    11     5    10 ar  
    12     6     7 ar  
    13     6    37 1   
    14     7     8 ar  
    15     7    38 1   
    16     8     9 ar  
    17     8    11 1   
    18     9    10 ar  
    19     9    39 1   
    20    11    12 2   
    21    11    13 1   
    22    12    41 1   
    23    13    42 1   
    24    13    43 1   
    25    14    18 1   
    26    14    44 1   
    27    14    45 1   
    28    15    16 1   
    29    15    17 1   
    30    15    18 1   
    31    18    33 1   
    32    18    46 1   
    33    19    20 1   
    34    19    23 1   
    35    19    24 1   
    36    20    21 1   
    37    20    40 1   
    38    20    47 1   
    39    21    22 1   
    40    21    32 1   
    41    21    60 1   
    42    22    23 1   
    43    22    48 1   
    44    22    52 1   
    45    23    49 1   
    46    23    50 1   
    47    24    25 2   
    48    24    26 1   
    49    25    51 1   
    50    26    53 1   
    51    26    54 1   
    52    26    55 1   
    53    27    28 ar  
    54    27    33 ar  
    55    27    56 1   
    56    28    31 ar  
    57    28    57 1   
    58    29    30 ar  
    59    29    33 ar  
    60    29    58 1   
    61    30    31 ar  
    62    30    59 1   
    63    31    32 1   
@<TRIPOS>SUBSTRUCTURE
     1 DX9         1 TEMP              0 ****  ****    0 ROOT
