@<TRIPOS>MOLECULE
DXB
   52    54     1     0     0
SMALL
abcg2


@<TRIPOS>ATOM
      1 C1          -7.2910    -3.1180    14.8780 c          1 DXB       0.594700
      2 O1          -6.1440    -3.0680    15.3080 o          1 DXB      -0.524100
      3 C9A         -7.6530    -3.6390    13.5440 ca         1 DXB      -0.242600
      4 C2          -8.4080    -2.6330    15.7890 c6         1 DXB      -0.178400
      5 C3          -9.7490    -2.4100    15.1090 c6         1 DXB      -0.045700
      6 C4         -10.0810    -3.6590    14.3020 c6         1 DXB      -0.041100
      7 C4A         -9.0300    -3.9070    13.2550 ca         1 DXB       0.015700
      8 C10         -9.3980    -4.3920    12.0340 ca         1 DXB      -0.171000
      9 C5A         -8.4480    -4.6480    11.0190 ca         1 DXB       0.050000
     10 C5          -8.8450    -5.1500     9.7610 ca         1 DXB      -0.142000
     11 C6          -7.9170    -5.3890     8.7810 ca         1 DXB      -0.048000
     12 C7          -6.5450    -5.1450     8.9830 ca         1 DXB      -0.184300
     13 CC7         -5.5390    -5.4190     7.8980 c3         1 DXB      -0.047800
     14 C8          -6.1480    -4.6510    10.2100 ca         1 DXB       0.165100
     15 O8          -4.8220    -4.4030    10.4610 oh         1 DXB      -0.581100
     16 C8A         -7.0680    -4.3860    11.2650 ca         1 DXB      -0.149000
     17 C9          -6.6900    -3.8700    12.5500 ca         1 DXB       0.251100
     18 O9          -5.4060    -3.5790    12.8120 oh         1 DXB      -0.507100
     19 CME        -11.0820    -2.7230    18.4030 c3         1 DXB       0.141900
     20 C1S        -10.8300    -2.0330    16.1310 c3         1 DXB       0.073300
     21 O1S        -11.0590    -3.0990    17.0310 os         1 DXB      -0.463000
     22 C2S        -12.1060    -1.5340    15.4430 c          1 DXB       0.565100
     23 O2S        -12.0150    -0.6670    14.6030 o          1 DXB      -0.470100
     24 C3S        -13.4740    -2.0620    15.8860 c3         1 DXB       0.086300
     25 O3S        -14.3950    -0.9990    15.6560 oh         1 DXB      -0.631000
     26 C4S        -13.9230    -3.3410    15.1430 c3         1 DXB       0.151300
     27 O4S        -13.6000    -3.1800    13.7590 oh         1 DXB      -0.650000
     28 C5S        -13.3870    -4.6470    15.7050 c3         1 DXB      -0.124100
     29 H21         -8.5210    -3.3930    16.5700 hc         1 DXB       0.070200
     30 H22         -8.0440    -1.7280    16.2800 hc         1 DXB       0.070200
     31 H3          -9.6710    -1.5620    14.4240 hc         1 DXB       0.083700
     32 H4A        -10.1280    -4.5150    14.9830 hc         1 DXB       0.067700
     33 H4E        -11.0550    -3.5790    13.8200 hc         1 DXB       0.067700
     34 H10        -10.4430    -4.5860    11.8230 ha         1 DXB       0.120000
     35 H5          -9.8950    -5.3450     9.5860 ha         1 DXB       0.122000
     36 H6          -8.2340    -5.7780     7.8200 ha         1 DXB       0.115000
     37 HM71        -5.0120    -4.5090     7.5910 hc         1 DXB       0.044033
     38 HM72        -4.7850    -6.1440     8.2190 hc         1 DXB       0.044033
     39 HM73        -6.0340    -5.8240     7.0170 hc         1 DXB       0.044033
     40 HO8         -4.2740    -4.5300     9.6750 ho         1 DXB       0.489000
     41 HO9         -4.8670    -3.7670    12.0200 ho         1 DXB       0.498000
     42 HM11       -11.2530    -3.6310    18.9770 h1         1 DXB       0.036033
     43 HM12       -10.1270    -2.2770    18.6990 h1         1 DXB       0.036033
     44 HM13       -11.8850    -2.0090    18.6110 h1         1 DXB       0.036033
     45 HS1        -10.4640    -1.1550    16.6810 h1         1 DXB       0.062700
     46 HS3        -13.4280    -2.3000    16.9500 h1         1 DXB       0.049700
     47 HO3        -15.2440    -1.2640    16.0330 ho         1 DXB       0.439000
     48 HS4        -15.0150    -3.3500    15.2550 h1         1 DXB       0.023700
     49 HO4        -13.9410    -3.9460    13.2810 ho         1 DXB       0.441000
     50 HM51       -13.8340    -5.4790    15.1550 hc         1 DXB       0.048700
     51 HM52       -12.3060    -4.7140    15.6260 hc         1 DXB       0.048700
     52 HM53       -13.6620    -4.7490    16.7560 hc         1 DXB       0.048700
@<TRIPOS>BOND
     1     1     2 2   
     2     1     3 1   
     3     1     4 1   
     4     3     7 ar  
     5     3    17 ar  
     6     4     5 1   
     7     4    29 1   
     8     4    30 1   
     9     5     6 1   
    10     5    20 1   
    11     5    31 1   
    12     6     7 1   
    13     6    32 1   
    14     6    33 1   
    15     7     8 ar  
    16     8     9 ar  
    17     8    34 1   
    18     9    10 ar  
    19     9    16 ar  
    20    10    11 ar  
    21    10    35 1   
    22    11    12 ar  
    23    11    36 1   
    24    12    13 1   
    25    12    14 ar  
    26    13    37 1   
    27    13    38 1   
    28    13    39 1   
    29    14    15 1   
    30    14    16 ar  
    31    15    40 1   
    32    16    17 ar  
    33    17    18 1   
    34    18    41 1   
    35    19    21 1   
    36    19    42 1   
    37    19    43 1   
    38    19    44 1   
    39    20    21 1   
    40    20    22 1   
    41    20    45 1   
    42    22    23 2   
    43    22    24 1   
    44    24    25 1   
    45    24    26 1   
    46    24    46 1   
    47    25    47 1   
    48    26    27 1   
    49    26    28 1   
    50    26    48 1   
    51    27    49 1   
    52    28    50 1   
    53    28    51 1   
    54    28    52 1   
@<TRIPOS>SUBSTRUCTURE
     1 DXB         1 TEMP              0 ****  ****    0 ROOT
