@<TRIPOS>MOLECULE
DXB
   52    54     1     0     0
SMALL
No Charge or Current Charge


@<TRIPOS>ATOM
      1 C1          -7.3950    -2.4290    14.5490 c          1 DXB       0.594700
      2 O1          -6.4540    -1.6620    14.7090 o          1 DXB      -0.524100
      3 C9A         -7.6230    -3.2450    13.2920 ca         1 DXB      -0.242600
      4 C2          -8.4780    -2.5300    15.6250 c6         1 DXB      -0.178400
      5 C3          -9.8780    -2.3480    14.9960 c6         1 DXB      -0.045700
      6 C4         -10.1160    -3.4710    13.9510 c6         1 DXB      -0.041100
      7 C4A         -8.9280    -3.7180    13.0100 ca         1 DXB       0.015700
      8 C10         -9.1620    -4.4630    11.8470 ca         1 DXB      -0.171000
      9 C5A         -8.1250    -4.7490    10.9500 ca         1 DXB       0.050000
     10 C5          -8.4170    -5.4970     9.7980 ca         1 DXB      -0.142000
     11 C6          -7.4080    -5.8100     8.8800 ca         1 DXB      -0.048000
     12 C7          -6.0900    -5.3800     9.1050 ca         1 DXB      -0.184300
     13 CC7         -5.0130    -5.7420     8.0800 c3         1 DXB      -0.047800
     14 C8          -5.7890    -4.6270    10.2640 ca         1 DXB       0.165100
     15 O8          -4.4950    -4.2220    10.4530 oh         1 DXB      -0.581100
     16 C8A         -6.8110    -4.3000    11.2050 ca         1 DXB      -0.149000
     17 C9          -6.5720    -3.5490    12.3900 ca         1 DXB       0.251100
     18 O9          -5.3050    -3.1440    12.6680 oh         1 DXB      -0.507100
     19 CME        -10.5770    -3.5690    18.0630 c3         1 DXB       0.141900
     20 C1S        -11.0370    -2.2290    16.0550 c3         1 DXB       0.073300
     21 O1S        -11.1870    -3.4910    16.7600 os         1 DXB      -0.463000
     22 C2S        -12.4020    -1.7390    15.4730 c          1 DXB       0.565100
     23 O2S        -12.4800    -1.1920    14.3750 o          1 DXB      -0.470100
     24 C3S        -13.6490    -1.8980    16.4020 c3         1 DXB       0.086300
     25 O3S        -14.3560    -0.6440    16.5790 oh         1 DXB      -0.631000
     26 C4S        -14.6610    -2.9690    15.8900 c3         1 DXB       0.151300
     27 O4S        -15.3160    -2.4970    14.7040 oh         1 DXB      -0.650000
     28 C5S        -14.0420    -4.3510    15.5980 c3         1 DXB      -0.124100
     29 H21         -8.4380    -3.5590    16.0040 hc         1 DXB       0.070200
     30 H22         -8.2750    -1.8220    16.4400 hc         1 DXB       0.070200
     31 H3          -9.8630    -1.3860    14.4620 hc         1 DXB       0.083700
     32 H4A        -10.3420    -4.4140    14.4670 hc         1 DXB       0.067700
     33 H4E        -11.0080    -3.2360    13.3550 hc         1 DXB       0.067700
     34 H10        -10.1660    -4.8260    11.6400 ha         1 DXB       0.120000
     35 H5          -9.4320    -5.8390     9.6100 ha         1 DXB       0.122000
     36 H6          -7.6560    -6.3900     7.9940 ha         1 DXB       0.115000
     37 HM71        -4.5590    -4.8440     7.6440 hc         1 DXB       0.044033
     38 HM72        -4.2170    -6.3450     8.5330 hc         1 DXB       0.044033
     39 HM73        -5.4250    -6.3280     7.2490 hc         1 DXB       0.044033
     40 HO8         -3.9640    -4.5460     9.6920 ho         1 DXB       0.489000
     41 HO9         -4.7660    -3.4670    11.9010 ho         1 DXB       0.498000
     42 HM11       -10.7390    -4.5630    18.4980 h1         1 DXB       0.036033
     43 HM12        -9.4960    -3.3930    18.0150 h1         1 DXB       0.036033
     44 HM13       -11.0170    -2.8270    18.7420 h1         1 DXB       0.036033
     45 HS1        -10.7520    -1.4410    16.7650 h1         1 DXB       0.062700
     46 HS3        -13.2800    -2.2340    17.3790 h1         1 DXB       0.049700
     47 HO3        -14.9390    -0.5660    15.7880 ho         1 DXB       0.439000
     48 HS4        -15.4120    -3.1110    16.6790 h1         1 DXB       0.023700
     49 HO4        -15.9910    -3.1680    14.4590 ho         1 DXB       0.441000
     50 HM51       -14.8160    -5.0640    15.2910 hc         1 DXB       0.048700
     51 HM52       -13.2940    -4.2970    14.7980 hc         1 DXB       0.048700
     52 HM53       -13.5600    -4.7520    16.4980 hc         1 DXB       0.048700
@<TRIPOS>BOND
     1     1     2 2   
     2     1     3 1   
     3     1     4 1   
     4     3     7 ar  
     5     3    17 ar  
     6     4     5 1   
     7     4    29 1   
     8     4    30 1   
     9     5     6 1   
    10     5    20 1   
    11     5    31 1   
    12     6     7 1   
    13     6    32 1   
    14     6    33 1   
    15     7     8 ar  
    16     8     9 ar  
    17     8    34 1   
    18     9    10 ar  
    19     9    16 ar  
    20    10    11 ar  
    21    10    35 1   
    22    11    12 ar  
    23    11    36 1   
    24    12    13 1   
    25    12    14 ar  
    26    13    37 1   
    27    13    38 1   
    28    13    39 1   
    29    14    15 1   
    30    14    16 ar  
    31    15    40 1   
    32    16    17 ar  
    33    17    18 1   
    34    18    41 1   
    35    19    21 1   
    36    19    42 1   
    37    19    43 1   
    38    19    44 1   
    39    20    21 1   
    40    20    22 1   
    41    20    45 1   
    42    22    23 2   
    43    22    24 1   
    44    24    25 1   
    45    24    26 1   
    46    24    46 1   
    47    25    47 1   
    48    26    27 1   
    49    26    28 1   
    50    26    48 1   
    51    27    49 1   
    52    28    50 1   
    53    28    51 1   
    54    28    52 1   
@<TRIPOS>SUBSTRUCTURE
     1 DXB         1 TEMP              0 ****  ****    0 ROOT
