@<TRIPOS>MOLECULE
DXC
   67    70     1     0     0
SMALL
abcg2


@<TRIPOS>ATOM
      1 C1           0.8610    -1.2540    -5.3930 c6         1 DXC       0.172300
      2 C2          -0.4850    -1.2210    -4.6940 c6         1 DXC      -0.072400
      3 C3          -0.9760     0.2070    -4.4290 c6         1 DXC      -0.047700
      4 C4           0.0490     1.0560    -3.6390 c6         1 DXC      -0.031000
      5 C5           1.4030     0.9540    -4.3640 c6         1 DXC      -0.065400
      6 C6           1.8910    -0.4700    -4.5970 c6         1 DXC      -0.110400
      7 C7          -2.3420     0.1850    -3.7440 c6         1 DXC      -0.067400
      8 C8          -2.2580    -0.3040    -2.3040 c6         1 DXC      -0.072400
      9 C9          -1.2410     0.4880    -1.4860 c6         1 DXC      -0.042700
     10 C10          0.1310     0.5240    -2.1860 c6         1 DXC      -0.043700
     11 C11         -1.0620    -0.1090    -0.0980 c5         1 DXC      -0.068700
     12 C12         -0.0580     0.6350     0.8040 c5         1 DXC      -0.029000
     13 C13          1.3020     0.6610     0.0940 c6         1 DXC       0.183300
     14 C14          1.1590     1.2500    -1.3150 c6         1 DXC      -0.109400
     15 C15         -2.2950    -0.2540     0.7860 c5         1 DXC      -0.073400
     16 C16         -1.7120    -0.4680     2.1960 c5         1 DXC      -0.077400
     17 C17         -0.1850    -0.2000     2.1060 c5         1 DXC      -0.045700
     18 C18         -0.3630     2.5310    -3.6860 c3         1 DXC      -0.082100
     19 C19          0.3880     0.3510     3.4190 c3         1 DXC      -0.056700
     20 O1           1.8290    -0.6510     0.0530 oh         1 DXC      -0.651000
     21 O2           1.2280    -2.6090    -5.5740 oh         1 DXC      -0.659000
     22 C20         -0.4960     2.0800     1.0830 c3         1 DXC      -0.081100
     23 C21          0.1570    -0.6690     4.5450 c3         1 DXC      -0.056400
     24 C22          0.5730    -0.1950     5.9280 c3         1 DXC      -0.205400
     25 C23          0.1600    -1.0980     7.1040 c          1 DXC       0.715000
     26 O3          -0.5450    -2.0980     6.8630 o          1 DXC      -0.744000
     27 O4           0.5710    -0.7430     8.2310 o          1 DXC      -0.744000
     28 C24          1.8660     0.7180     3.3140 c3         1 DXC      -0.079100
     29 H1           0.7480    -0.7600    -6.3720 h1         1 DXC       0.018700
     30 H22         -0.4130    -1.7870    -3.7600 hc         1 DXC       0.055200
     31 H21         -1.2290    -1.7380    -5.3090 hc         1 DXC       0.055200
     32 H3          -1.1000     0.6890    -5.4080 hc         1 DXC       0.034700
     33 H52          2.1670     1.5280    -3.8360 hc         1 DXC       0.035700
     34 H51          1.2940     1.4430    -5.3400 hc         1 DXC       0.035700
     35 H62          2.0910    -0.9800    -3.6480 hc         1 DXC       0.044700
     36 H61          2.8430    -0.4410    -5.1380 hc         1 DXC       0.044700
     37 H72         -3.0280    -0.4470    -4.3170 hc         1 DXC       0.035200
     38 H71         -2.7770     1.1880    -3.7570 hc         1 DXC       0.035200
     39 H82         -1.9850    -1.3660    -2.2790 hc         1 DXC       0.042200
     40 H81         -3.2450    -0.2380    -1.8380 hc         1 DXC       0.042200
     41 H9          -1.6220     1.5130    -1.3800 hc         1 DXC       0.043700
     42 H10          0.4630    -0.5200    -2.2510 hc         1 DXC       0.057700
     43 H11         -0.6560    -1.1200    -0.2480 hc         1 DXC       0.061700
     44 H13          1.9910     1.3160     0.6430 h1         1 DXC       0.034700
     45 H142         2.1470     1.2350    -1.7870 hc         1 DXC       0.035200
     46 H141         0.9030     2.3080    -1.2160 hc         1 DXC       0.035200
     47 H152        -2.9390    -1.0770     0.4740 hc         1 DXC       0.031200
     48 H151        -2.9050     0.6530     0.7440 hc         1 DXC       0.031200
     49 H162        -1.9080    -1.4780     2.5580 hc         1 DXC       0.050700
     50 H161        -2.1800     0.2080     2.9170 hc         1 DXC       0.050700
     51 H17          0.3110    -1.1600     1.9240 hc         1 DXC       0.064700
     52 H183        -0.4570     2.8570    -4.7250 hc         1 DXC       0.031033
     53 H182        -1.3150     2.7390    -3.1980 hc         1 DXC       0.031033
     54 H181         0.3870     3.1720    -3.2180 hc         1 DXC       0.031033
     55 H19         -0.1700     1.2590     3.6870 hc         1 DXC       0.032700
     56 H1O1         2.6300    -0.6320    -0.4800 ho         1 DXC       0.429000
     57 H2           2.0700    -2.6300    -6.0400 ho         1 DXC       0.436000
     58 H203        -0.7630     2.6260     0.1780 hc         1 DXC       0.031033
     59 H202        -1.3600     2.1210     1.7450 hc         1 DXC       0.031033
     60 H201         0.3020     2.6410     1.5740 hc         1 DXC       0.031033
     61 H212        -0.9010    -0.9330     4.5790 hc         1 DXC       0.041200
     62 H211         0.6860    -1.5950     4.2880 hc         1 DXC       0.041200
     63 H222         1.6570    -0.0590     5.9880 hc         1 DXC       0.015700
     64 H221         0.1550     0.8040     6.1120 hc         1 DXC       0.015700
     65 H243         2.4560    -0.1300     2.9580 hc         1 DXC       0.023700
     66 H242         2.0320     1.5460     2.6260 hc         1 DXC       0.023700
     67 H241         2.2720     1.0250     4.2780 hc         1 DXC       0.023700
@<TRIPOS>BOND
     1     1     2 1   
     2     1     6 1   
     3     1    21 1   
     4     1    29 1   
     5     2     3 1   
     6     2    30 1   
     7     2    31 1   
     8     3     4 1   
     9     3     7 1   
    10     3    32 1   
    11     4     5 1   
    12     4    10 1   
    13     4    18 1   
    14     5     6 1   
    15     5    33 1   
    16     5    34 1   
    17     6    35 1   
    18     6    36 1   
    19     7     8 1   
    20     7    37 1   
    21     7    38 1   
    22     8     9 1   
    23     8    39 1   
    24     8    40 1   
    25     9    10 1   
    26     9    11 1   
    27     9    41 1   
    28    10    14 1   
    29    10    42 1   
    30    11    12 1   
    31    11    15 1   
    32    11    43 1   
    33    12    13 1   
    34    12    17 1   
    35    12    22 1   
    36    13    14 1   
    37    13    20 1   
    38    13    44 1   
    39    14    45 1   
    40    14    46 1   
    41    15    16 1   
    42    15    47 1   
    43    15    48 1   
    44    16    17 1   
    45    16    49 1   
    46    16    50 1   
    47    17    19 1   
    48    17    51 1   
    49    18    52 1   
    50    18    53 1   
    51    18    54 1   
    52    19    23 1   
    53    19    28 1   
    54    19    55 1   
    55    20    56 1   
    56    21    57 1   
    57    22    58 1   
    58    22    59 1   
    59    22    60 1   
    60    23    24 1   
    61    23    61 1   
    62    23    62 1   
    63    24    25 1   
    64    24    63 1   
    65    24    64 1   
    66    25    26 1   
    67    25    27 1   
    68    28    65 1   
    69    28    66 1   
    70    28    67 1   
@<TRIPOS>SUBSTRUCTURE
     1 DXC         1 TEMP              0 ****  ****    0 ROOT
