@<TRIPOS>MOLECULE
DXC
   67    70     1     0     0
SMALL
No Charge or Current Charge


@<TRIPOS>ATOM
      1 C1           0.9050    -1.3110    -5.5070 c6         1 DXC       0.172300
      2 C2          -0.4520    -1.3310    -4.7650 c6         1 DXC      -0.072400
      3 C3          -1.0030     0.1100    -4.5100 c6         1 DXC      -0.047700
      4 C4           0.0230     1.0290    -3.7470 c6         1 DXC      -0.031000
      5 C5           1.3910     0.9760    -4.5130 c6         1 DXC      -0.065400
      6 C6           1.9340    -0.4580    -4.7330 c6         1 DXC      -0.110400
      7 C7          -2.3760     0.0550    -3.7800 c6         1 DXC      -0.067400
      8 C8          -2.2450    -0.3990    -2.3070 c6         1 DXC      -0.072400
      9 C9          -1.2350     0.4690    -1.5040 c6         1 DXC      -0.042700
     10 C10          0.1660     0.5370    -2.2210 c6         1 DXC      -0.043700
     11 C11         -1.0640    -0.0850    -0.0590 c5         1 DXC      -0.068700
     12 C12         -0.0880     0.7490     0.8410 c5         1 DXC      -0.029000
     13 C13          1.3240     0.8050     0.1370 c6         1 DXC       0.183300
     14 C14          1.2060     1.3380    -1.3230 c6         1 DXC      -0.109400
     15 C15         -2.3350    -0.1880     0.8230 c5         1 DXC      -0.073400
     16 C16         -1.7620    -0.3750     2.2630 c5         1 DXC      -0.077400
     17 C17         -0.2040    -0.1460     2.1640 c5         1 DXC      -0.045700
     18 C18         -0.4530     2.5220    -3.8110 c3         1 DXC      -0.082100
     19 C19          0.4330     0.3330     3.5390 c3         1 DXC      -0.056700
     20 O1           1.9950    -0.4670     0.1250 oh         1 DXC      -0.651000
     21 O2           1.3960    -2.6440    -5.6660 oh         1 DXC      -0.659000
     22 C20         -0.5470     2.2270     1.1130 c3         1 DXC      -0.081100
     23 C21          0.1770    -0.7020     4.6830 c3         1 DXC      -0.056400
     24 C22          0.5940    -0.2510     6.1110 c3         1 DXC      -0.205400
     25 C23          0.0430    -1.2330     7.1610 c          1 DXC       0.715000
     26 O3          -1.0710    -1.0240     7.6190 o          1 DXC      -0.744000
     27 O4           0.7230    -2.2040     7.4570 o          1 DXC      -0.744000
     28 C24          1.9400     0.6820     3.4290 c3         1 DXC      -0.079100
     29 H1           0.7500    -0.8560    -6.4960 h1         1 DXC       0.018700
     30 H22         -0.3370    -1.8820    -3.8230 hc         1 DXC       0.055200
     31 H21         -1.1780    -1.9000    -5.3610 hc         1 DXC       0.055200
     32 H3          -1.1820     0.5610    -5.4970 hc         1 DXC       0.034700
     33 H52          2.1470     1.5850    -4.0020 hc         1 DXC       0.035700
     34 H51          1.2710     1.4450    -5.5000 hc         1 DXC       0.035700
     35 H62          2.1810    -0.9280    -3.7720 hc         1 DXC       0.044700
     36 H61          2.8730    -0.4060    -5.3000 hc         1 DXC       0.044700
     37 H72         -3.0530    -0.6260    -4.3130 hc         1 DXC       0.035200
     38 H71         -2.8640     1.0380    -3.8180 hc         1 DXC       0.035200
     39 H82         -1.9480    -1.4550    -2.2600 hc         1 DXC       0.042200
     40 H81         -3.2370    -0.3460    -1.8380 hc         1 DXC       0.042200
     41 H9          -1.6530     1.4800    -1.4270 hc         1 DXC       0.043700
     42 H10          0.5390    -0.4930    -2.2470 hc         1 DXC       0.057700
     43 H11         -0.6610    -1.0960    -0.2060 hc         1 DXC       0.061700
     44 H13          1.9580     1.5220     0.6740 h1         1 DXC       0.034700
     45 H142         2.2020     1.3030    -1.7820 hc         1 DXC       0.035200
     46 H141         0.9390     2.4010    -1.3000 hc         1 DXC       0.035200
     47 H152        -2.9710    -1.0300     0.5290 hc         1 DXC       0.031200
     48 H151        -2.9540     0.7140     0.7520 hc         1 DXC       0.031200
     49 H162        -1.9860    -1.3780     2.6460 hc         1 DXC       0.050700
     50 H161        -2.2350     0.3320     2.9550 hc         1 DXC       0.050700
     51 H17          0.2660    -1.1180     1.9710 hc         1 DXC       0.064700
     52 H183        -0.6210     2.8410    -4.8470 hc         1 DXC       0.031033
     53 H182        -1.3870     2.7020    -3.2710 hc         1 DXC       0.031033
     54 H181         0.2970     3.2020    -3.3900 hc         1 DXC       0.031033
     55 H19         -0.0760     1.2580     3.8350 hc         1 DXC       0.032700
     56 H1O1         2.8390    -0.3310    -0.3530 ho         1 DXC       0.429000
     57 H2           2.2380    -2.5730    -6.1660 ho         1 DXC       0.436000
     58 H203        -0.7090     2.7950     0.1920 hc         1 DXC       0.031033
     59 H202        -1.4780     2.2860     1.6860 hc         1 DXC       0.031033
     60 H201         0.2080     2.7690     1.6940 hc         1 DXC       0.031033
     61 H212        -0.8930    -0.9350     4.7200 hc         1 DXC       0.041200
     62 H211         0.6870    -1.6440     4.4410 hc         1 DXC       0.041200
     63 H222         1.6900    -0.2630     6.1340 hc         1 DXC       0.015700
     64 H221         0.1560     0.7440     6.2550 hc         1 DXC       0.015700
     65 H243         2.5140    -0.1680     3.0400 hc         1 DXC       0.023700
     66 H242         2.0940     1.5430     2.7740 hc         1 DXC       0.023700
     67 H241         2.3630     0.9680     4.3970 hc         1 DXC       0.023700
@<TRIPOS>BOND
     1     1     2 1   
     2     1     6 1   
     3     1    21 1   
     4     1    29 1   
     5     2     3 1   
     6     2    30 1   
     7     2    31 1   
     8     3     4 1   
     9     3     7 1   
    10     3    32 1   
    11     4     5 1   
    12     4    10 1   
    13     4    18 1   
    14     5     6 1   
    15     5    33 1   
    16     5    34 1   
    17     6    35 1   
    18     6    36 1   
    19     7     8 1   
    20     7    37 1   
    21     7    38 1   
    22     8     9 1   
    23     8    39 1   
    24     8    40 1   
    25     9    10 1   
    26     9    11 1   
    27     9    41 1   
    28    10    14 1   
    29    10    42 1   
    30    11    12 1   
    31    11    15 1   
    32    11    43 1   
    33    12    13 1   
    34    12    17 1   
    35    12    22 1   
    36    13    14 1   
    37    13    20 1   
    38    13    44 1   
    39    14    45 1   
    40    14    46 1   
    41    15    16 1   
    42    15    47 1   
    43    15    48 1   
    44    16    17 1   
    45    16    49 1   
    46    16    50 1   
    47    17    19 1   
    48    17    51 1   
    49    18    52 1   
    50    18    53 1   
    51    18    54 1   
    52    19    23 1   
    53    19    28 1   
    54    19    55 1   
    55    20    56 1   
    56    21    57 1   
    57    22    58 1   
    58    22    59 1   
    59    22    60 1   
    60    23    24 1   
    61    23    61 1   
    62    23    62 1   
    63    24    25 1   
    64    24    63 1   
    65    24    64 1   
    66    25    26 1   
    67    25    27 1   
    68    28    65 1   
    69    28    66 1   
    70    28    67 1   
@<TRIPOS>SUBSTRUCTURE
     1 DXC         1 TEMP              0 ****  ****    0 ROOT
