@<TRIPOS>MOLECULE
DXE
   16    15     1     0     0
SMALL
bcc


@<TRIPOS>ATOM
      1 C4           0.3860    -0.0400     2.7450 c3         1 DXE       0.122700
      2 O2           0.3230     0.3450     1.3970 os         1 DXE      -0.395100
      3 C3          -0.7970    -0.1890     0.7390 c3         1 DXE       0.135400
      4 C2          -0.8080     0.2550    -0.7010 c3         1 DXE       0.135400
      5 O1           0.2820    -0.3080    -1.3850 os         1 DXE      -0.395100
      6 C1           0.3250     0.0780    -2.7340 c3         1 DXE       0.122700
      7 H41          0.4690    -1.1280     2.8600 h1         1 DXE       0.027367
      8 H42          1.2700     0.4190     3.1870 h1         1 DXE       0.027367
      9 H43         -0.4940     0.2900     3.3110 h1         1 DXE       0.027367
     10 H31         -1.7300     0.1520     1.2070 h1         1 DXE       0.028200
     11 H32         -0.7990    -1.2880     0.7930 h1         1 DXE       0.028200
     12 H21         -0.7840     1.3530    -0.7560 h1         1 DXE       0.028200
     13 H22         -1.7610    -0.0640    -1.1470 h1         1 DXE       0.028200
     14 H11          1.1850    -0.4060    -3.1970 h1         1 DXE       0.027367
     15 H12         -0.5770    -0.2250    -3.2800 h1         1 DXE       0.027367
     16 H13          0.4370     1.1630    -2.8500 h1         1 DXE       0.027367
@<TRIPOS>BOND
     1     1     2 1   
     2     1     7 1   
     3     1     8 1   
     4     1     9 1   
     5     2     3 1   
     6     3     4 1   
     7     3    10 1   
     8     3    11 1   
     9     4     5 1   
    10     4    12 1   
    11     4    13 1   
    12     5     6 1   
    13     6    14 1   
    14     6    15 1   
    15     6    16 1   
@<TRIPOS>SUBSTRUCTURE
     1 DXE         1 TEMP              0 ****  ****    0 ROOT
