@<TRIPOS>MOLECULE
DXE
   16    15     1     0     0
SMALL
No Charge or Current Charge


@<TRIPOS>ATOM
      1 C4           0.4070    -0.0250     2.8210 c3         1 DXE       0.145900
      2 O2           0.2860     0.3690     1.4440 os         1 DXE      -0.441500
      3 C3          -0.8360    -0.2170     0.7520 c3         1 DXE       0.158600
      4 C2          -0.8460     0.2840    -0.7130 c3         1 DXE       0.158600
      5 O1           0.2440    -0.3300    -1.4310 os         1 DXE      -0.441500
      6 C1           0.3440     0.0610    -2.8100 c3         1 DXE       0.145900
      7 H41          0.5340    -1.1120     2.9060 h1         1 DXE       0.027367
      8 H42          1.2790     0.4580     3.2800 h1         1 DXE       0.027367
      9 H43         -0.4850     0.2670     3.3900 h1         1 DXE       0.027367
     10 H31         -1.7760     0.0810     1.2330 h1         1 DXE       0.028200
     11 H32         -0.7780    -1.3130     0.7640 h1         1 DXE       0.028200
     12 H21         -0.7610     1.3790    -0.7270 h1         1 DXE       0.028200
     13 H22         -1.8050     0.0110    -1.1730 h1         1 DXE       0.028200
     14 H11          1.1920    -0.4440    -3.2900 h1         1 DXE       0.027367
     15 H12         -0.5690    -0.2080    -3.3590 h1         1 DXE       0.027367
     16 H13          0.4970     1.1440    -2.8980 h1         1 DXE       0.027367
@<TRIPOS>BOND
     1     1     2 1   
     2     1     7 1   
     3     1     8 1   
     4     1     9 1   
     5     2     3 1   
     6     3     4 1   
     7     3    10 1   
     8     3    11 1   
     9     4     5 1   
    10     4    12 1   
    11     4    13 1   
    12     5     6 1   
    13     6    14 1   
    14     6    15 1   
    15     6    16 1   
@<TRIPOS>SUBSTRUCTURE
     1 DXE         1 TEMP              0 ****  ****    0 ROOT
