@<TRIPOS>MOLECULE
DXF
   46    47     1     0     0
SMALL
bcc


@<TRIPOS>ATOM
      1 C            1.1350     2.6550     0.1070 c          1 DXF       0.576900
      2 N            2.0530     0.4270    -0.3840 ns         1 DXF      -0.536900
      3 O            2.0990     2.9320     0.7660 o          1 DXF      -0.517100
      4 CA           0.9850     1.3470    -0.6530 c3         1 DXF      -0.015300
      5 CB          -0.3670     0.6970    -0.3540 c6         1 DXF       0.326600
      6 CAA          5.6140     0.8420     2.3010 c3         1 DXF       0.131700
      7 NAB         -5.9450    -3.0750     1.0440 nt         1 DXF      -0.678000
      8 OAD         -6.8180    -1.0580     1.6120 o          1 DXF      -0.607000
      9 OAE         -4.7970     2.3820    -1.0780 o          1 DXF      -0.802800
     10 OAF          3.5410     1.3580    -1.8180 o          1 DXF      -0.578100
     11 OAG         -3.1660     2.3080    -2.5900 o          1 DXF      -0.802800
     12 CAI          4.9020    -3.5350    -2.4940 cc         1 DXF      -0.288300
     13 CAJ          3.8430    -2.9190    -3.0750 cd         1 DXF       0.251600
     14 CAK          5.2810    -2.7200    -1.3920 cc         1 DXF      -0.222300
     15 CAM         -2.1660    -0.2800     1.3600 c6         1 DXF       0.105900
     16 NAN          5.0040    -0.3890     0.4850 n2         1 DXF      -0.407200
     17 NAP         -1.4220     1.5240    -0.8340 nu         1 DXF      -0.754000
     18 OAQ          4.7590     0.7500     1.1750 os         1 DXF      -0.158300
     19 OAR         -4.7470    -1.2430     0.7460 os         1 DXF      -0.451900
     20 OAS          3.5430    -1.7870    -2.4120 os         1 DXF      -0.304800
     21 SAT         -0.5370     0.5050     1.4520 ss         1 DXF      -0.420200
     22 CAU         -5.9080    -1.7370     1.1780 c          1 DXF       0.755100
     23 CAX         -3.1380     0.4570     0.4740 c2         1 DXF      -0.280400
     24 CAY          4.2580    -0.5090    -0.5400 cf         1 DXF       0.285300
     25 CAZ         -2.7450     1.2660    -0.5310 ce         1 DXF       0.087800
     26 CBA          4.4170    -1.6670    -1.3900 cd         1 DXF       0.208400
     27 H1           0.2880     3.3480    -0.0160 h4         1 DXF       0.029200
     28 H3           1.9370    -0.2310     0.3740 hn         1 DXF       0.335500
     29 H5           0.9930     1.6010    -1.7210 h1         1 DXF       0.099700
     30 H6          -0.3820    -0.3080    -0.7940 h2         1 DXF       0.053700
     31 H7           5.4560     0.0130     2.9940 h1         1 DXF       0.040367
     32 H8           6.6640     0.8710     2.0060 h1         1 DXF       0.040367
     33 H9           5.3560     1.7750     2.7960 h1         1 DXF       0.040367
     34 H10         -6.7230    -3.5820     1.4290 hn         1 DXF       0.312500
     35 H11         -5.1250    -3.6020     0.7970 hn         1 DXF       0.312500
     36 H13          5.3590    -4.4570    -2.8130 ha         1 DXF       0.156000
     37 H14          3.2310    -3.1580    -3.9280 h4         1 DXF       0.056100
     38 H15          6.0860    -2.8880    -0.6960 ha         1 DXF       0.166000
     39 H16         -5.2570     0.6930     0.1650 h1         1 DXF       0.072200
     40 H17         -2.0290    -1.3190     1.0500 h1         1 DXF       0.054700
     41 H18         -2.5370    -0.3080     2.3880 h1         1 DXF       0.054700
     42 H2          -4.7680     0.5100     1.8540 h1         1 DXF       0.072200
     43 H4          -1.3240     1.8680    -1.7820 hn         1 DXF       0.455800
     44 CAL         -4.5650     0.1860     0.8280 c3         1 DXF       0.229600
     45 CAV         -3.6700     2.0530    -1.4780 c          1 DXF       0.925800
     46 CAW          3.2520     0.5370    -0.9680 c          1 DXF       0.589800
@<TRIPOS>BOND
     1     1     3 2   
     2     1     4 1   
     3     1    27 1   
     4     2     4 1   
     5     2    28 1   
     6     2    46 1   
     7     4     5 1   
     8     4    29 1   
     9     5    17 1   
    10     5    21 1   
    11     5    30 1   
    12     6    18 1   
    13     6    31 1   
    14     6    32 1   
    15     6    33 1   
    16     7    22 1   
    17     7    34 1   
    18     7    35 1   
    19     8    22 2   
    20     9    45 1   
    21    10    46 2   
    22    11    45 1   
    23    12    13 2   
    24    12    14 1   
    25    12    36 1   
    26    13    20 1   
    27    13    37 1   
    28    14    26 2   
    29    14    38 1   
    30    15    21 1   
    31    15    23 1   
    32    15    40 1   
    33    15    41 1   
    34    16    18 1   
    35    16    24 2   
    36    17    25 1   
    37    17    43 1   
    38    19    22 1   
    39    19    44 1   
    40    20    26 1   
    41    23    25 2   
    42    23    44 1   
    43    24    26 1   
    44    24    46 1   
    45    25    45 1   
    46    39    44 1   
    47    42    44 1   
@<TRIPOS>SUBSTRUCTURE
     1 DXF         1 TEMP              0 ****  ****    0 ROOT
