@<TRIPOS>MOLECULE
DXF
   46    47     1     0     0
SMALL
No Charge or Current Charge


@<TRIPOS>ATOM
      1 C            1.0470     3.0060     0.5010 c          1 DXF       0.576900
      2 N            2.2190     0.9290    -0.2210 ns         1 DXF      -0.469900
      3 O            2.0280     3.3190     1.1750 o          1 DXF      -0.517100
      4 CA           0.9720     1.7320    -0.3670 c3         1 DXF      -0.015300
      5 CB          -0.3220     0.9150    -0.0810 c6         1 DXF       0.374500
      6 CAA          5.8430     1.2280     1.4340 c3         1 DXF       0.154900
      7 NAB         -6.3710    -2.5990    -0.4890 nt         1 DXF      -0.611000
      8 OAD         -6.9020    -1.5200     1.4180 o          1 DXF      -0.558000
      9 OAE         -5.1380     1.9280    -0.6600 o          1 DXF      -0.697500
     10 OAF          1.8680    -0.4850    -1.9480 o          1 DXF      -0.578100
     11 OAG         -3.5430     2.9110    -1.6920 o          1 DXF      -0.697500
     12 CAI          5.5150    -3.8310    -2.0550 cc         1 DXF      -0.205000
     13 CAJ          4.4090    -3.6630    -2.8390 cd         1 DXF       0.141900
     14 CAK          5.4850    -2.7980    -1.1000 cc         1 DXF      -0.139000
     15 CAM         -2.0090    -0.4250     1.5730 c6         1 DXF       0.153800
     16 NAN          4.5350    -0.4150     0.4130 n2         1 DXF      -0.308700
     17 NAP         -1.5260     1.6750    -0.4120 nu         1 DXF      -0.809200
     18 OAQ          5.1450     0.8430     0.2370 os         1 DXF      -0.280000
     19 OAR         -4.9190    -1.1430     0.3160 os         1 DXF      -0.475100
     20 OAS          3.6700    -2.5740    -2.4340 os         1 DXF      -0.216000
     21 SAT         -0.4110     0.4610     1.6890 ss         1 DXF      -0.516000
     22 CAU         -6.1330    -1.7230     0.4960 c          1 DXF       0.639100
     23 CAX         -3.1270     0.3280     0.8660 c2         1 DXF      -0.280400
     24 CAY          3.8810    -0.8610    -0.6290 cf         1 DXF       0.285300
     25 CAZ         -2.8650     1.3090    -0.0550 ce         1 DXF       0.087800
     26 CBA          4.3590    -2.0560    -1.3540 cd         1 DXF       0.098700
     27 H1           0.1440     3.6560     0.4790 h4         1 DXF       0.029200
     28 H3           2.8670     1.1720     0.5240 hn         1 DXF       0.335500
     29 H5           0.9170     2.0730    -1.4080 h1         1 DXF       0.099700
     30 H6          -0.2980    -0.0230    -0.6560 h2         1 DXF       0.053700
     31 H7           5.1530     1.2990     2.2840 h1         1 DXF       0.040367
     32 H8           6.6270     0.5000     1.6810 h1         1 DXF       0.040367
     33 H9           6.3190     2.2070     1.2980 h1         1 DXF       0.040367
     34 H10         -7.2330    -3.1210    -0.4950 hn         1 DXF       0.312500
     35 H11         -5.6840    -2.7190    -1.2170 hn         1 DXF       0.312500
     36 H13          6.2730    -4.6040    -2.1430 ha         1 DXF       0.138000
     37 H14          4.0460    -4.2310    -3.6860 h4         1 DXF       0.056100
     38 H15          6.2200    -2.6320    -0.3180 ha         1 DXF       0.148000
     39 H16         -5.2190     0.6530     1.3730 h1         1 DXF       0.072200
     40 H17         -1.8230    -1.3700     1.0410 h1         1 DXF       0.054700
     41 H18         -2.3040    -0.6840     2.6000 h1         1 DXF       0.054700
     42 H2          -4.4510    -0.6340     2.2860 h1         1 DXF       0.072200
     43 H4          -1.4860     2.3230    -1.2050 hn         1 DXF       0.511000
     44 CAL         -4.5010    -0.1730     1.2900 c3         1 DXF       0.252800
     45 CAV         -3.9420     2.1010    -0.8590 c          1 DXF       0.715200
     46 CAW          2.5840    -0.1530    -1.0090 c          1 DXF       0.522800
@<TRIPOS>BOND
     1     1     3 2   
     2     1     4 1   
     3     1    27 1   
     4     2     4 1   
     5     2    28 1   
     6     2    46 1   
     7     4     5 1   
     8     4    29 1   
     9     5    17 1   
    10     5    21 1   
    11     5    30 1   
    12     6    18 1   
    13     6    31 1   
    14     6    32 1   
    15     6    33 1   
    16     7    22 1   
    17     7    34 1   
    18     7    35 1   
    19     8    22 2   
    20     9    45 1   
    21    10    46 2   
    22    11    45 1   
    23    12    13 2   
    24    12    14 1   
    25    12    36 1   
    26    13    20 1   
    27    13    37 1   
    28    14    26 2   
    29    14    38 1   
    30    15    21 1   
    31    15    23 1   
    32    15    40 1   
    33    15    41 1   
    34    16    18 1   
    35    16    24 2   
    36    17    25 1   
    37    17    43 1   
    38    19    22 1   
    39    19    44 1   
    40    20    26 1   
    41    23    25 2   
    42    23    44 1   
    43    24    26 1   
    44    24    46 1   
    45    25    45 1   
    46    39    44 1   
    47    42    44 1   
@<TRIPOS>SUBSTRUCTURE
     1 DXF         1 TEMP              0 ****  ****    0 ROOT
