@<TRIPOS>MOLECULE
DXG
   21    20     1     0     0
SMALL
abcg2


@<TRIPOS>ATOM
      1 O1B          3.2450    -1.4030    -0.4580 o          1 DXG      -0.736500
      2 O1A          3.9290     0.6260     0.1830 o          1 DXG      -0.736500
      3 C1           3.0910    -0.1880    -0.2710 c          1 DXG       0.699000
      4 C2           1.7260     0.4330    -0.6430 c3         1 DXG      -0.014700
      5 O2           1.7590     1.8120    -0.3640 oh         1 DXG      -0.716000
      6 C3           0.5890    -0.2420     0.1210 c3         1 DXG       0.172300
      7 O3           0.7780    -0.1010     1.5160 oh         1 DXG      -0.667000
      8 C4          -0.7760     0.2780    -0.3200 c3         1 DXG      -0.101400
      9 O5          -1.9380    -1.8090     0.0950 oh         1 DXG      -0.707000
     10 C5          -1.9500    -0.4250     0.3550 c3         1 DXG       0.030300
     11 C6          -3.2880     0.1710    -0.1330 c          1 DXG       0.687000
     12 O6A         -4.0320    -0.6340    -0.7410 o          1 DXG      -0.743500
     13 O6B         -3.5110     1.3690     0.1030 o          1 DXG      -0.743500
     14 H21          1.5600     0.2620    -1.7180 h1         1 DXG       0.028700
     15 HO21         2.6650     1.9220    -0.0160 ho         1 DXG       0.464000
     16 H31          0.6440    -1.3130    -0.0890 h1         1 DXG       0.086700
     17 HO31         0.8530     0.8430     1.6950 ho         1 DXG       0.426000
     18 H41         -0.8460     1.3510    -0.1220 hc         1 DXG       0.040200
     19 H42         -0.8610     0.1570    -1.4060 hc         1 DXG       0.040200
     20 H51         -1.8800    -0.2530     1.4380 h1         1 DXG       0.034700
     21 HO51        -2.7650    -1.9240    -0.4100 ho         1 DXG       0.457000
@<TRIPOS>BOND
     1     1     3 1   
     2     2     3 1   
     3     3     4 1   
     4     4     5 1   
     5     4     6 1   
     6     4    14 1   
     7     5    15 1   
     8     6     7 1   
     9     6     8 1   
    10     6    16 1   
    11     7    17 1   
    12     8    10 1   
    13     8    18 1   
    14     8    19 1   
    15     9    10 1   
    16     9    21 1   
    17    10    11 1   
    18    10    20 1   
    19    11    12 1   
    20    11    13 1   
@<TRIPOS>SUBSTRUCTURE
     1 DXG         1 TEMP              0 ****  ****    0 ROOT
