@<TRIPOS>MOLECULE
DXG
   21    20     1     0     0
SMALL
No Charge or Current Charge


@<TRIPOS>ATOM
      1 O1B          3.1890    -1.4960    -0.5660 o          1 DXG      -0.736500
      2 O1A          4.0610     0.3510     0.1230 o          1 DXG      -0.736500
      3 C1           3.1110    -0.3080    -0.2830 c          1 DXG       0.699000
      4 C2           1.7640     0.4510    -0.5600 c3         1 DXG      -0.014700
      5 O2           1.8690     1.8850    -0.2960 oh         1 DXG      -0.716000
      6 C3           0.5830    -0.1690     0.2420 c3         1 DXG       0.172300
      7 O3           0.6970     0.2720     1.6010 oh         1 DXG      -0.667000
      8 C4          -0.8040     0.2410    -0.3220 c3         1 DXG      -0.101400
      9 O5          -1.9550    -1.9030    -0.0230 oh         1 DXG      -0.707000
     10 C5          -2.0080    -0.4940     0.3260 c3         1 DXG       0.030300
     11 C6          -3.3740     0.1600    -0.1050 c          1 DXG       0.687000
     12 O6A         -4.0360    -0.4190    -0.9590 o          1 DXG      -0.743500
     13 O6B         -3.7830     1.1350     0.5120 o          1 DXG      -0.743500
     14 H21          1.5580     0.2970    -1.6280 h1         1 DXG       0.028700
     15 HO21         2.8320     2.0400    -0.1330 ho         1 DXG       0.464000
     16 H31          0.6610    -1.2640     0.1840 h1         1 DXG       0.086700
     17 HO31         1.0440     1.1880     1.5140 ho         1 DXG       0.426000
     18 H41         -0.9360     1.3220    -0.1910 hc         1 DXG       0.040200
     19 H42         -0.8220     0.0590    -1.4030 hc         1 DXG       0.040200
     20 H51         -1.9370    -0.3820     1.4170 h1         1 DXG       0.034700
     21 HO51        -2.7210    -2.0330    -0.6340 ho         1 DXG       0.457000
@<TRIPOS>BOND
     1     1     3 1   
     2     2     3 1   
     3     3     4 1   
     4     4     5 1   
     5     4     6 1   
     6     4    14 1   
     7     5    15 1   
     8     6     7 1   
     9     6     8 1   
    10     6    16 1   
    11     7    17 1   
    12     8    10 1   
    13     8    18 1   
    14     8    19 1   
    15     9    10 1   
    16     9    21 1   
    17    10    11 1   
    18    10    20 1   
    19    11    12 1   
    20    11    13 1   
@<TRIPOS>SUBSTRUCTURE
     1 DXG         1 TEMP              0 ****  ****    0 ROOT
