@<TRIPOS>MOLECULE
DXH
   57    61     1     0     0
SMALL
No Charge or Current Charge


@<TRIPOS>ATOM
      1 C01         -2.4090     4.5610     0.8720 c3         1 DXH      -0.054800
      2 C02         -1.3560     3.4980     0.5600 ca         1 DXH      -0.088300
      3 C03         -1.7160     2.2190     0.0730 ca         1 DXH       0.294000
      4 C04         -0.7030     1.2810    -0.2120 ca         1 DXH      -0.058000
      5 C05          0.6640     1.5740     0.0040 ca         1 DXH      -0.145600
      6 C06          1.0030     2.8520     0.5070 ca         1 DXH      -0.100000
      7 C07          0.0030     3.8000     0.7740 ca         1 DXH      -0.098000
      8 C08          1.7090     0.5170    -0.3090 c          1 DXH       0.624700
      9 O09          1.3820    -0.5890    -0.7270 o          1 DXH      -0.576100
     10 N10          3.0300     0.8910    -0.0910 ns         1 DXH      -0.146000
     11 C11          4.2660     0.2000    -0.2480 ca         1 DXH      -0.023000
     12 C12          4.3640    -1.1520    -0.6440 ca         1 DXH      -0.098000
     13 C13          5.6230    -1.7580    -0.7790 ca         1 DXH      -0.093000
     14 C14          6.7940    -1.0300    -0.5170 ca         1 DXH      -0.085000
     15 C15          6.7180     0.3180    -0.1090 ca         1 DXH      -0.167300
     16 C16          5.4470     0.9210     0.0150 ca         1 DXH      -0.122000
     17 C17          7.9930     1.1250     0.1710 c3         1 DXH       0.356300
     18 F18          9.0270     0.3430     0.5590 f          1 DXH      -0.113667
     19 F19          8.3990     1.7980    -0.9290 f          1 DXH      -0.113667
     20 F20          7.8150     2.0410     1.1510 f          1 DXH      -0.113667
     21 N21         -3.0710     1.9180    -0.1490 nu         1 DXH      -0.937900
     22 C22         -3.8100     0.7470    -0.1300 ca         1 DXH       0.462900
     23 N23         -3.2470    -0.3820     0.3350 nb         1 DXH      -0.293000
     24 C24         -4.0060    -1.5060     0.3640 cp         1 DXH       0.278500
     25 N25         -5.3020    -1.5730    -0.0300 nb         1 DXH      -0.224000
     26 C26         -5.8490    -0.4290    -0.4790 ca         1 DXH       0.164500
     27 C27         -5.1350     0.7270    -0.5350 ca         1 DXH      -0.393900
     28 C28         -6.0090     1.7390    -1.0610 cc         1 DXH       0.384800
     29 N29         -7.2270     1.2470    -1.3260 nd         1 DXH      -0.517100
     30 N30         -7.1000    -0.0910    -0.9580 na         1 DXH      -0.017100
     31 C31         -8.2060    -1.0560    -1.0710 c3         1 DXH       0.080900
     32 C32         -3.3540    -2.7680     0.8510 cp         1 DXH      -0.214500
     33 C33         -4.0800    -3.9860     0.9400 ca         1 DXH       0.377900
     34 N34         -3.5490    -5.1550     1.3690 nb         1 DXH      -0.681000
     35 C35         -2.2490    -5.1640     1.7340 ca         1 DXH       0.348900
     36 C36         -1.4400    -4.0220     1.6860 ca         1 DXH      -0.177000
     37 C37         -1.9890    -2.8100     1.2420 ca         1 DXH      -0.020000
     38 H1          -2.9390     4.8720    -0.0370 hc         1 DXH       0.048033
     39 H2          -3.1510     4.1870     1.5880 hc         1 DXH       0.048033
     40 H3          -1.9620     5.4610     1.3110 hc         1 DXH       0.048033
     41 H4          -0.9790     0.3170    -0.6260 ha         1 DXH       0.159000
     42 H5           2.0360     3.1340     0.6940 ha         1 DXH       0.118000
     43 H6           0.2900     4.7780     1.1550 ha         1 DXH       0.120000
     44 H7           3.1380     1.8370     0.2450 hn         1 DXH       0.157000
     45 H8           3.4830    -1.7500    -0.8520 ha         1 DXH       0.148000
     46 H9           5.6920    -2.7990    -1.0890 ha         1 DXH       0.124000
     47 H10          7.7590    -1.5200    -0.6350 ha         1 DXH       0.134000
     48 H11          5.3750     1.9650     0.3150 ha         1 DXH       0.123000
     49 H12         -3.6570     2.7440    -0.2250 hn         1 DXH       0.506000
     50 H13         -5.8390     2.7880    -1.2680 h4         1 DXH       0.047800
     51 H14         -7.9140    -1.8710    -1.7440 h1         1 DXH       0.061367
     52 H15         -8.4370    -1.4680    -0.0820 h1         1 DXH       0.061367
     53 H16         -9.0980    -0.5590    -1.4720 h1         1 DXH       0.061367
     54 H17         -5.1320    -4.0340     0.6580 h4         1 DXH       0.036100
     55 H18         -1.8460    -6.1170     2.0750 h4         1 DXH       0.017100
     56 H19         -0.3980    -4.0810     1.9900 ha         1 DXH       0.129000
     57 H20         -1.3590    -1.9220     1.2030 ha         1 DXH       0.151000
@<TRIPOS>BOND
     1     1     2 1   
     2     1    38 1   
     3     1    39 1   
     4     1    40 1   
     5     2     3 ar  
     6     2     7 ar  
     7     3     4 ar  
     8     3    21 1   
     9     4     5 ar  
    10     4    41 1   
    11     5     6 ar  
    12     5     8 1   
    13     6     7 ar  
    14     6    42 1   
    15     7    43 1   
    16     8     9 2   
    17     8    10 1   
    18    10    11 1   
    19    10    44 1   
    20    11    12 ar  
    21    11    16 ar  
    22    12    13 ar  
    23    12    45 1   
    24    13    14 ar  
    25    13    46 1   
    26    14    15 ar  
    27    14    47 1   
    28    15    16 ar  
    29    15    17 1   
    30    16    48 1   
    31    17    18 1   
    32    17    19 1   
    33    17    20 1   
    34    21    22 1   
    35    21    49 1   
    36    22    23 ar  
    37    22    27 ar  
    38    23    24 ar  
    39    24    25 ar  
    40    24    32 1   
    41    25    26 ar  
    42    26    27 ar  
    43    26    30 1   
    44    27    28 1   
    45    28    29 2   
    46    28    50 1   
    47    29    30 1   
    48    30    31 1   
    49    31    51 1   
    50    31    52 1   
    51    31    53 1   
    52    32    33 ar  
    53    32    37 ar  
    54    33    34 ar  
    55    33    54 1   
    56    34    35 ar  
    57    35    36 ar  
    58    35    55 1   
    59    36    37 ar  
    60    36    56 1   
    61    37    57 1   
@<TRIPOS>SUBSTRUCTURE
     1 DXH         1 TEMP              0 ****  ****    0 ROOT
