@<TRIPOS>MOLECULE
DXH
   57    61     1     0     0
SMALL
abcg2


@<TRIPOS>ATOM
      1 C01         -2.4810     4.5230     1.1010 c3         1 DXH      -0.054800
      2 C02         -1.4100     3.4950     0.8900 ca         1 DXH      -0.088300
      3 C03         -1.6880     2.2720     0.2590 ca         1 DXH       0.294000
      4 C04         -0.6830     1.3310     0.0820 ca         1 DXH      -0.058000
      5 C05          0.6060     1.5780     0.5410 ca         1 DXH      -0.145600
      6 C06          0.8910     2.7840     1.1720 ca         1 DXH      -0.100000
      7 C07         -0.1130     3.7250     1.3310 ca         1 DXH      -0.098000
      8 C08          1.6170     0.4940     0.3700 c          1 DXH       0.624700
      9 O09          1.2910    -0.6790     0.3250 o          1 DXH      -0.576100
     10 N10          2.9030     0.9240     0.2650 ns         1 DXH      -0.146000
     11 C11          4.0580     0.1520     0.1220 ca         1 DXH      -0.023000
     12 C12          4.1440    -1.1960     0.4770 ca         1 DXH      -0.098000
     13 C13          5.3460    -1.8670     0.3220 ca         1 DXH      -0.093000
     14 C14          6.4740    -1.2320    -0.1750 ca         1 DXH      -0.085000
     15 C15          6.3850     0.1090    -0.5180 ca         1 DXH      -0.167300
     16 C16          5.1890     0.7960    -0.3740 ca         1 DXH      -0.122000
     17 C17          7.5610     0.8510    -1.0730 c3         1 DXH       0.356300
     18 F18          8.6780     0.1190    -1.0760 f          1 DXH      -0.113667
     19 F19          7.3460     1.2420    -2.3380 f          1 DXH      -0.113667
     20 F20          7.8220     1.9640    -0.3730 f          1 DXH      -0.113667
     21 N21         -2.9940     2.0580    -0.2060 nu         1 DXH      -0.937900
     22 C22         -3.6860     0.8980    -0.2470 ca         1 DXH       0.462900
     23 N23         -3.1360    -0.2240     0.1840 nb         1 DXH      -0.293000
     24 C24         -3.8330    -1.3670     0.1440 cp         1 DXH       0.278500
     25 N25         -5.0700    -1.5240    -0.2820 nb         1 DXH      -0.224000
     26 C26         -5.6240    -0.3890    -0.7080 ca         1 DXH       0.164500
     27 C27         -5.0080     0.8650    -0.7370 ca         1 DXH      -0.393900
     28 C28         -5.9890     1.7290    -1.2740 cc         1 DXH       0.384800
     29 N29         -7.0830     1.0600    -1.5410 nd         1 DXH      -0.517100
     30 N30         -6.8650    -0.2190    -1.1980 na         1 DXH      -0.017100
     31 C31         -7.8880    -1.2170    -1.3830 c3         1 DXH       0.080900
     32 C32         -3.1180    -2.5690     0.6210 cp         1 DXH      -0.214500
     33 C33         -3.7710    -3.7970     0.7290 ca         1 DXH       0.377900
     34 N34         -3.1800    -4.9110     1.1370 nb         1 DXH      -0.681000
     35 C35         -1.8910    -4.8530     1.4570 ca         1 DXH       0.348900
     36 C36         -1.1460    -3.6860     1.3870 ca         1 DXH      -0.177000
     37 C37         -1.7700    -2.5240     0.9650 ca         1 DXH      -0.020000
     38 H1          -2.8820     4.9010     0.1580 hc         1 DXH       0.048033
     39 H2          -3.3200     4.1170     1.6690 hc         1 DXH       0.048033
     40 H3          -2.0940     5.3790     1.6500 hc         1 DXH       0.048033
     41 H4          -0.8980     0.4020    -0.4230 ha         1 DXH       0.159000
     42 H5           1.8740     2.9950     1.5730 ha         1 DXH       0.118000
     43 H6           0.1130     4.6580     1.8320 ha         1 DXH       0.120000
     44 H7           3.0390     1.9160     0.1470 hn         1 DXH       0.157000
     45 H8           3.2920    -1.7210     0.8770 ha         1 DXH       0.148000
     46 H9           5.4030    -2.9110     0.6010 ha         1 DXH       0.124000
     47 H10          7.3960    -1.7860    -0.2830 ha         1 DXH       0.134000
     48 H11          5.1200     1.8430    -0.6470 ha         1 DXH       0.123000
     49 H12         -3.5030     2.8800    -0.4890 hn         1 DXH       0.506000
     50 H13         -5.9360     2.7890    -1.4720 h4         1 DXH       0.047800
     51 H14         -8.1060    -1.3500    -2.4410 h1         1 DXH       0.061367
     52 H15         -7.5320    -2.1570    -0.9730 h1         1 DXH       0.061367
     53 H16         -8.7960    -0.9230    -0.8620 h1         1 DXH       0.061367
     54 H17         -4.8210    -3.8740     0.4720 h4         1 DXH       0.036100
     55 H18         -1.4300    -5.7780     1.7840 h4         1 DXH       0.017100
     56 H19         -0.0980    -3.6890     1.6550 ha         1 DXH       0.129000
     57 H20         -1.2140    -1.5990     0.8980 ha         1 DXH       0.151000
@<TRIPOS>BOND
     1     1     2 1   
     2     1    38 1   
     3     1    39 1   
     4     1    40 1   
     5     2     3 ar  
     6     2     7 ar  
     7     3     4 ar  
     8     3    21 1   
     9     4     5 ar  
    10     4    41 1   
    11     5     6 ar  
    12     5     8 1   
    13     6     7 ar  
    14     6    42 1   
    15     7    43 1   
    16     8     9 2   
    17     8    10 1   
    18    10    11 1   
    19    10    44 1   
    20    11    12 ar  
    21    11    16 ar  
    22    12    13 ar  
    23    12    45 1   
    24    13    14 ar  
    25    13    46 1   
    26    14    15 ar  
    27    14    47 1   
    28    15    16 ar  
    29    15    17 1   
    30    16    48 1   
    31    17    18 1   
    32    17    19 1   
    33    17    20 1   
    34    21    22 1   
    35    21    49 1   
    36    22    23 ar  
    37    22    27 ar  
    38    23    24 ar  
    39    24    25 ar  
    40    24    32 1   
    41    25    26 ar  
    42    26    27 ar  
    43    26    30 1   
    44    27    28 1   
    45    28    29 2   
    46    28    50 1   
    47    29    30 1   
    48    30    31 1   
    49    31    51 1   
    50    31    52 1   
    51    31    53 1   
    52    32    33 ar  
    53    32    37 ar  
    54    33    34 ar  
    55    33    54 1   
    56    34    35 ar  
    57    35    36 ar  
    58    35    55 1   
    59    36    37 ar  
    60    36    56 1   
    61    37    57 1   
@<TRIPOS>SUBSTRUCTURE
     1 DXH         1 TEMP              0 ****  ****    0 ROOT
