@<TRIPOS>MOLECULE
DXI
   66    68     1     0     0
SMALL
bcc


@<TRIPOS>ATOM
      1 O1          -0.6580     0.4010     0.6280 os         1 DXI      -0.388600
      2 O2           1.9840    -0.5400    -0.0320 os         1 DXI      -0.386600
      3 O3          -2.4550    -0.4250    -0.4720 os         1 DXI      -0.393600
      4 O4           3.7930     0.7610     0.2380 os         1 DXI      -0.421600
      5 O5          -5.9630     0.1790     0.3340 os         1 DXI      -0.422600
      6 O6           1.3740    -3.1620     0.3590 oh         1 DXI      -0.603800
      7 O7          -1.4110    -3.0640    -0.2140 oh         1 DXI      -0.612800
      8 O8          -2.6870     2.3610    -0.8500 oh         1 DXI      -0.572800
      9 O9           3.5430    -2.3620    -1.6190 oh         1 DXI      -0.611800
     10 O10          5.9260    -1.1640    -2.6710 oh         1 DXI      -0.602800
     11 O11          7.2240     0.5950    -0.8750 oh         1 DXI      -0.598800
     12 O12         -5.2720     3.2770    -1.4550 oh         1 DXI      -0.582800
     13 O14         -6.5190     0.8290    -1.8320 oh         1 DXI      -0.596800
     14 C17          1.2990    -0.9160     1.1460 c6         1 DXI       0.126100
     15 C18          0.4990    -2.1830     0.8620 c6         1 DXI       0.141100
     16 C19         -0.6460    -1.8890    -0.1000 c6         1 DXI       0.083100
     17 C20          0.3490     0.1900     1.5950 c6         1 DXI       0.145100
     18 C21         -1.4710    -0.7240     0.4480 c6         1 DXI       0.326900
     19 C22         -3.5680     0.3180    -0.0060 c6         1 DXI       0.129100
     20 C23          3.3660    -0.5480    -0.0110 c6         1 DXI       0.316900
     21 C24         -3.7910     1.4990    -0.9400 c6         1 DXI       0.148100
     22 C25         -4.8130    -0.5810     0.0040 c6         1 DXI       0.126100
     23 C26          3.8710    -1.0190    -1.3720 c6         1 DXI       0.096100
     24 C27          5.3880    -0.8920    -1.3970 c6         1 DXI       0.112100
     25 C28          5.8270     0.5160    -1.0090 c6         1 DXI       0.119100
     26 C29         -5.0810     2.2160    -0.5510 c6         1 DXI       0.087100
     27 C30          5.1950     0.8910     0.3330 c6         1 DXI       0.158100
     28 C31          1.0560     1.5030     1.8540 c3         1 DXI       0.145400
     29 C32         -6.2580     1.2430    -0.5320 c6         1 DXI       0.312900
     30 C33         -4.7150    -1.6920     1.0280 c3         1 DXI       0.141400
     31 C34          5.4970     2.3190     0.7350 c3         1 DXI       0.147400
     32 HO6          0.8610    -3.9500     0.1510 ho         1 DXI       0.430000
     33 HO7         -1.9810    -2.9890    -0.9850 ho         1 DXI       0.428000
     34 HO8         -2.8790     3.1280    -1.3990 ho         1 DXI       0.416000
     35 HO10         5.8690    -2.1100    -2.8360 ho         1 DXI       0.427000
     36 HO11         7.6210     0.2920    -1.6990 ho         1 DXI       0.428000
     37 HO12        -5.8150     3.9490    -1.0340 ho         1 DXI       0.408000
     38 HO13         0.5840     3.2210     2.6050 ho         1 DXI       0.408000
     39 HO14        -7.3630     0.3660    -1.8500 ho         1 DXI       0.417000
     40 HO15        -5.7410    -3.2600     1.5040 ho         1 DXI       0.404000
     41 HO16         5.1680     3.4530     2.2650 ho         1 DXI       0.405000
     42 H17          2.0070    -1.1140     1.9610 h1         1 DXI       0.064700
     43 H18          0.0630    -2.5120     1.8180 h1         1 DXI       0.045700
     44 H19         -0.2310    -1.5880    -1.0720 h1         1 DXI       0.083700
     45 H20         -0.1000    -0.1470     2.5450 h1         1 DXI       0.046700
     46 H21         -1.9100    -1.0160     1.4220 h2         1 DXI       0.020700
     47 H22         -3.3830     0.7010     1.0070 h1         1 DXI       0.070700
     48 H23          3.7510    -1.2240     0.7740 h2         1 DXI       0.036700
     49 H24         -3.8980     1.1090    -1.9640 h1         1 DXI       0.069700
     50 H25         -4.9200    -1.0310    -0.9930 h1         1 DXI       0.071700
     51 H26          3.4420    -0.3530    -2.1380 h1         1 DXI       0.072700
     52 H27          5.7970    -1.5880    -0.6460 h1         1 DXI       0.047700
     53 H28          5.4620     1.2210    -1.7730 h1         1 DXI       0.059700
     54 H29         -4.9630     2.5920     0.4750 h1         1 DXI       0.053700
     55 H30          5.5900     0.2110     1.1060 h1         1 DXI       0.056700
     56 H31          1.3810     1.9390     0.9040 h1         1 DXI       0.050200
     57 H31A         1.9640     1.2970     2.4360 h1         1 DXI       0.050200
     58 H32         -7.1360     1.7260    -0.0850 h2         1 DXI       0.061700
     59 H33         -4.6200    -1.2510     2.0300 h1         1 DXI       0.030700
     60 H33A        -3.8040    -2.2700     0.8410 h1         1 DXI       0.030700
     61 H34          5.0880     2.9970    -0.0270 h1         1 DXI       0.039200
     62 H34A         6.5840     2.4570     0.7390 h1         1 DXI       0.039200
     63 HO9          2.6640    -2.5490    -1.2610 ho         1 DXI       0.441000
     64 O13          0.1740     2.3530     2.5480 oh         1 DXI      -0.597800
     65 O15         -5.8600    -2.5050     0.9210 oh         1 DXI      -0.586800
     66 O16          4.9370     2.5570     2.0040 oh         1 DXI      -0.594800
@<TRIPOS>BOND
     1     1    17 1   
     2     1    18 1   
     3     2    14 1   
     4     2    20 1   
     5     3    18 1   
     6     3    19 1   
     7     4    20 1   
     8     4    27 1   
     9     5    22 1   
    10     5    29 1   
    11     6    15 1   
    12     6    32 1   
    13     7    16 1   
    14     7    33 1   
    15     8    21 1   
    16     8    34 1   
    17     9    23 1   
    18     9    63 1   
    19    10    24 1   
    20    10    35 1   
    21    11    25 1   
    22    11    36 1   
    23    12    26 1   
    24    12    37 1   
    25    13    29 1   
    26    13    39 1   
    27    14    15 1   
    28    14    17 1   
    29    14    42 1   
    30    15    16 1   
    31    15    43 1   
    32    16    18 1   
    33    16    44 1   
    34    17    28 1   
    35    17    45 1   
    36    18    46 1   
    37    19    21 1   
    38    19    22 1   
    39    19    47 1   
    40    20    23 1   
    41    20    48 1   
    42    21    26 1   
    43    21    49 1   
    44    22    30 1   
    45    22    50 1   
    46    23    24 1   
    47    23    51 1   
    48    24    25 1   
    49    24    52 1   
    50    25    27 1   
    51    25    53 1   
    52    26    29 1   
    53    26    54 1   
    54    27    31 1   
    55    27    55 1   
    56    28    56 1   
    57    28    57 1   
    58    28    64 1   
    59    29    58 1   
    60    30    59 1   
    61    30    60 1   
    62    30    65 1   
    63    31    61 1   
    64    31    62 1   
    65    31    66 1   
    66    38    64 1   
    67    40    65 1   
    68    41    66 1   
@<TRIPOS>SUBSTRUCTURE
     1 DXI         1 TEMP              0 ****  ****    0 ROOT
