@<TRIPOS>MOLECULE
DXI
   66    68     1     0     0
SMALL
No Charge or Current Charge


@<TRIPOS>ATOM
      1 O1          -0.8710     0.6190     0.4990 os         1 DXI      -0.435000
      2 O2           2.1120     0.1340     0.0160 os         1 DXI      -0.433000
      3 O3          -2.5960    -0.3420    -0.7790 os         1 DXI      -0.440000
      4 O4           4.2890     0.7810     0.5460 os         1 DXI      -0.468000
      5 O5          -6.0030     0.2300     0.7520 os         1 DXI      -0.469000
      6 O6           1.6290    -2.7200    -0.1010 oh         1 DXI      -0.726000
      7 O7          -1.0870    -2.8340    -0.9140 oh         1 DXI      -0.735000
      8 O8          -3.3740     2.2600    -1.8650 oh         1 DXI      -0.695000
      9 O9           3.1730    -1.6860    -2.0540 oh         1 DXI      -0.734000
     10 O10          5.9300    -1.2500    -2.7640 oh         1 DXI      -0.665000
     11 O11          7.6730    -0.2250    -0.7180 oh         1 DXI      -0.721000
     12 O12         -6.1500     2.9250    -1.8400 oh         1 DXI      -0.705000
     13 O14         -7.2130     0.3040    -1.2140 oh         1 DXI      -0.719000
     14 C17          1.2860    -0.4980     1.0270 c6         1 DXI       0.149300
     15 C18          0.6630    -1.8470     0.5210 c6         1 DXI       0.164300
     16 C19         -0.4880    -1.5810    -0.4900 c6         1 DXI       0.106300
     17 C20          0.1530     0.4600     1.5140 c6         1 DXI       0.168300
     18 C21         -1.5280    -0.6110     0.1540 c6         1 DXI       0.373300
     19 C22         -3.7460     0.3810    -0.2550 c6         1 DXI       0.152300
     20 C23          3.4890    -0.2810    -0.0030 c6         1 DXI       0.363300
     21 C24         -4.3410     1.3200    -1.3530 c6         1 DXI       0.171300
     22 C25         -4.8840    -0.5660     0.2580 c6         1 DXI       0.149300
     23 C26          3.9470    -0.6140    -1.4600 c6         1 DXI       0.119300
     24 C27          5.4560    -0.9860    -1.4320 c6         1 DXI       0.135300
     25 C28          6.2840     0.1530    -0.7660 c6         1 DXI       0.142300
     26 C29         -5.5690     2.1010    -0.8010 c6         1 DXI       0.110300
     27 C30          5.7020     0.4570     0.6540 c6         1 DXI       0.181300
     28 C31          0.6910     1.8730     1.9170 c3         1 DXI       0.168600
     29 C32         -6.6220     1.1110    -0.2000 c6         1 DXI       0.359300
     30 C33         -4.4510    -1.5400     1.4040 c3         1 DXI       0.164600
     31 C34          6.4320     1.6490     1.3570 c3         1 DXI       0.170600
     32 HO6          1.0890    -3.4980    -0.3950 ho         1 DXI       0.529000
     33 HO7         -1.8470    -2.5960    -1.4990 ho         1 DXI       0.527000
     34 HO8         -3.9190     2.9880    -2.2500 ho         1 DXI       0.515000
     35 HO10         5.1770    -1.7040    -3.2110 ho         1 DXI       0.466000
     36 HO11         7.8390    -0.6800    -1.5810 ho         1 DXI       0.527000
     37 HO12        -6.8230     2.3510    -2.2830 ho         1 DXI       0.507000
     38 HO13         0.0770     3.6250     2.5850 ho         1 DXI       0.507000
     39 HO14        -7.7560    -0.3530    -0.7230 ho         1 DXI       0.516000
     40 HO15        -5.1890    -2.8290     2.7010 ho         1 DXI       0.503000
     41 HO16         6.3660     2.7720     2.9770 ho         1 DXI       0.504000
     42 H17          1.9170    -0.7150     1.9030 h1         1 DXI       0.064700
     43 H18          0.2290    -2.3540     1.3970 h1         1 DXI       0.045700
     44 H19         -0.0590    -1.0590    -1.3590 h1         1 DXI       0.083700
     45 H20         -0.3140     0.0190     2.4080 h1         1 DXI       0.046700
     46 H21         -1.9330    -1.0710     1.0650 h2         1 DXI       0.020700
     47 H22         -3.4160     1.0150     0.5810 h1         1 DXI       0.070700
     48 H23          3.6180    -1.1820     0.6170 h2         1 DXI       0.036700
     49 H24         -4.6930     0.6780    -2.1760 h1         1 DXI       0.069700
     50 H25         -5.2290    -1.1890    -0.5800 h1         1 DXI       0.071700
     51 H26          3.8290     0.3030    -2.0580 h1         1 DXI       0.072700
     52 H27          5.5670    -1.8930    -0.8170 h1         1 DXI       0.047700
     53 H28          6.1700     1.0610    -1.3780 h1         1 DXI       0.059700
     54 H29         -5.2210     2.7440     0.0220 h1         1 DXI       0.053700
     55 H30          5.8130    -0.4340     1.2900 h1         1 DXI       0.056700
     56 H31          1.1510     2.3310     1.0310 h1         1 DXI       0.050200
     57 H31A         1.4880     1.7340     2.6610 h1         1 DXI       0.050200
     58 H32         -7.4060     1.6930     0.3100 h2         1 DXI       0.061700
     59 H33         -3.9850    -0.9460     2.2020 h1         1 DXI       0.030700
     60 H33A        -3.6880    -2.2200     1.0050 h1         1 DXI       0.030700
     61 H34          6.3780     2.5210     0.6910 h1         1 DXI       0.039200
     62 H34A         7.4940     1.3880     1.4610 h1         1 DXI       0.039200
     63 HO9          2.5740    -2.0320    -1.3270 ho         1 DXI       0.540000
     64 O13         -0.3360     2.7400     2.4480 oh         1 DXI      -0.720000
     65 O15         -5.5430    -2.3150     1.9380 oh         1 DXI      -0.709000
     66 O16          5.8800     1.9790     2.6510 oh         1 DXI      -0.717000
@<TRIPOS>BOND
     1     1    17 1   
     2     1    18 1   
     3     2    14 1   
     4     2    20 1   
     5     3    18 1   
     6     3    19 1   
     7     4    20 1   
     8     4    27 1   
     9     5    22 1   
    10     5    29 1   
    11     6    15 1   
    12     6    32 1   
    13     7    16 1   
    14     7    33 1   
    15     8    21 1   
    16     8    34 1   
    17     9    23 1   
    18     9    63 1   
    19    10    24 1   
    20    10    35 1   
    21    11    25 1   
    22    11    36 1   
    23    12    26 1   
    24    12    37 1   
    25    13    29 1   
    26    13    39 1   
    27    14    15 1   
    28    14    17 1   
    29    14    42 1   
    30    15    16 1   
    31    15    43 1   
    32    16    18 1   
    33    16    44 1   
    34    17    28 1   
    35    17    45 1   
    36    18    46 1   
    37    19    21 1   
    38    19    22 1   
    39    19    47 1   
    40    20    23 1   
    41    20    48 1   
    42    21    26 1   
    43    21    49 1   
    44    22    30 1   
    45    22    50 1   
    46    23    24 1   
    47    23    51 1   
    48    24    25 1   
    49    24    52 1   
    50    25    27 1   
    51    25    53 1   
    52    26    29 1   
    53    26    54 1   
    54    27    31 1   
    55    27    55 1   
    56    28    56 1   
    57    28    57 1   
    58    28    64 1   
    59    29    58 1   
    60    30    59 1   
    61    30    60 1   
    62    30    65 1   
    63    31    61 1   
    64    31    62 1   
    65    31    66 1   
    66    38    64 1   
    67    40    65 1   
    68    41    66 1   
@<TRIPOS>SUBSTRUCTURE
     1 DXI         1 TEMP              0 ****  ****    0 ROOT
