@<TRIPOS>MOLECULE
DXJ
   34    33     1     0     0
SMALL
abcg2


@<TRIPOS>ATOM
      1 C10          2.3380     0.2990    -0.1050 ce         1 DXJ      -0.085000
      2 C13          5.4850    -1.7900    -0.2030 c3         1 DXJ      -0.194100
      3 C01         -3.9230    -2.0300     0.5760 c3         1 DXJ      -0.057400
      4 C02         -4.4450    -0.6940     0.1370 c2         1 DXJ      -0.107400
      5 C03         -3.7400     0.4400     0.1420 c2         1 DXJ      -0.228200
      6 C04         -5.8720    -0.7150    -0.3310 c3         1 DXJ      -0.057400
      7 C05         -2.3130     0.6320     0.5530 c3         1 DXJ      -0.034200
      8 C06         -1.4120     0.8960    -0.6680 c3         1 DXJ      -0.048200
      9 C07          0.0140     1.1660    -0.2830 c2         1 DXJ      -0.063400
     10 C08          0.9420     0.2030    -0.4470 ce         1 DXJ      -0.222000
     11 C09          0.2860     2.5240     0.2790 c3         1 DXJ      -0.065900
     12 C11          3.2190    -0.7010    -0.2920 cf         1 DXJ      -0.330200
     13 C12          4.6380    -0.5770     0.0680 c          1 DXJ       0.571300
     14 O14          5.1050     0.4380     0.5560 o          1 DXJ      -0.537100
     15 H1           2.7040     1.2240     0.3250 ha         1 DXJ       0.190000
     16 H2           5.4400    -2.0500    -1.2630 hc         1 DXJ       0.058700
     17 H3           6.5220    -1.6280     0.0830 hc         1 DXJ       0.058700
     18 H4           5.0930    -2.6510     0.3430 hc         1 DXJ       0.058700
     19 H5          -2.8930    -2.0060     0.9240 hc         1 DXJ       0.039367
     20 H6          -4.5400    -2.4350     1.3810 hc         1 DXJ       0.039367
     21 H7          -3.9800    -2.7480    -0.2460 hc         1 DXJ       0.039367
     22 H8          -4.2330     1.3410    -0.2170 ha         1 DXJ       0.165000
     23 H9          -6.5360    -1.0740     0.4600 hc         1 DXJ       0.039367
     24 H10         -6.2200     0.2690    -0.6430 hc         1 DXJ       0.039367
     25 H11         -5.9970    -1.4020    -1.1730 hc         1 DXJ       0.039367
     26 H12         -2.2530     1.4820     1.2380 hc         1 DXJ       0.047200
     27 H13         -1.9270    -0.2310     1.0960 hc         1 DXJ       0.047200
     28 H14         -1.4670     0.0330    -1.3340 hc         1 DXJ       0.050700
     29 H15         -1.8090     1.7530    -1.2220 hc         1 DXJ       0.050700
     30 H16          0.6210    -0.7420    -0.8780 ha         1 DXJ       0.174000
     31 H17         -0.3860     2.7410     1.1120 hc         1 DXJ       0.047367
     32 H18          1.3040     2.6630     0.6320 hc         1 DXJ       0.047367
     33 H19          0.0870     3.2840    -0.4810 hc         1 DXJ       0.047367
     34 H20          2.8910    -1.6430    -0.7210 ha         1 DXJ       0.179000
@<TRIPOS>BOND
     1     1    10 1   
     2     1    12 2   
     3     1    15 1   
     4     2    13 1   
     5     2    16 1   
     6     2    17 1   
     7     2    18 1   
     8     3     4 1   
     9     3    19 1   
    10     3    20 1   
    11     3    21 1   
    12     4     5 2   
    13     4     6 1   
    14     5     7 1   
    15     5    22 1   
    16     6    23 1   
    17     6    24 1   
    18     6    25 1   
    19     7     8 1   
    20     7    26 1   
    21     7    27 1   
    22     8     9 1   
    23     8    28 1   
    24     8    29 1   
    25     9    10 2   
    26     9    11 1   
    27    10    30 1   
    28    11    31 1   
    29    11    32 1   
    30    11    33 1   
    31    12    13 1   
    32    12    34 1   
    33    13    14 2   
@<TRIPOS>SUBSTRUCTURE
     1 DXJ         1 TEMP              0 ****  ****    0 ROOT
