@<TRIPOS>MOLECULE
DXJ
   34    33     1     0     0
SMALL
No Charge or Current Charge


@<TRIPOS>ATOM
      1 C10          2.3160     0.2820    -0.0720 ce         1 DXJ      -0.085000
      2 C13          5.4860    -1.9010    -0.0560 c3         1 DXJ      -0.194100
      3 C01         -3.7050    -2.0060     0.1880 c3         1 DXJ      -0.057400
      4 C02         -4.4140    -0.6620     0.1110 c2         1 DXJ      -0.107400
      5 C03         -3.8300     0.5390     0.2840 c2         1 DXJ      -0.228200
      6 C04         -5.8940    -0.8100    -0.1920 c3         1 DXJ      -0.057400
      7 C05         -2.3750     0.8200     0.6160 c3         1 DXJ      -0.034200
      8 C06         -1.4980     0.9260    -0.6490 c3         1 DXJ      -0.048200
      9 C07         -0.0270     1.1540    -0.3290 c2         1 DXJ      -0.063400
     10 C08          0.8890     0.1590    -0.4010 ce         1 DXJ      -0.222000
     11 C09          0.2780     2.5800     0.1100 c3         1 DXJ      -0.065900
     12 C11          3.2080    -0.7410    -0.1880 cf         1 DXJ      -0.330200
     13 C12          4.6550    -0.6370     0.1440 c          1 DXJ       0.571300
     14 O14          5.1560     0.4020     0.5550 o          1 DXJ      -0.537100
     15 H1           2.6730     1.2490     0.2910 ha         1 DXJ       0.190000
     16 H2           5.3640    -2.2450    -1.0890 hc         1 DXJ       0.058700
     17 H3           6.5410    -1.7620     0.2050 hc         1 DXJ       0.058700
     18 H4           5.0300    -2.7180     0.5150 hc         1 DXJ       0.058700
     19 H5          -2.6250    -1.9120     0.3480 hc         1 DXJ       0.039367
     20 H6          -4.1050    -2.6150     1.0080 hc         1 DXJ       0.039367
     21 H7          -3.8400    -2.5730    -0.7420 hc         1 DXJ       0.039367
     22 H8          -4.4320     1.4450     0.2030 ha         1 DXJ       0.165000
     23 H9          -6.3990    -1.4010     0.5810 hc         1 DXJ       0.039367
     24 H10         -6.3980     0.1620    -0.2430 hc         1 DXJ       0.039367
     25 H11         -6.0520    -1.3120    -1.1540 hc         1 DXJ       0.039367
     26 H12         -2.3040     1.7530     1.1880 hc         1 DXJ       0.047200
     27 H13         -1.9670     0.0400     1.2700 hc         1 DXJ       0.047200
     28 H14         -1.6150     0.0020    -1.2290 hc         1 DXJ       0.050700
     29 H15         -1.8820     1.7280    -1.2910 hc         1 DXJ       0.050700
     30 H16          0.5650    -0.8340    -0.7170 ha         1 DXJ       0.174000
     31 H17          0.3360     2.6470     1.2030 hc         1 DXJ       0.047367
     32 H18          1.2310     2.9330    -0.3000 hc         1 DXJ       0.047367
     33 H19         -0.4890     3.2890    -0.2230 hc         1 DXJ       0.047367
     34 H20          2.8640    -1.7110    -0.5460 ha         1 DXJ       0.179000
@<TRIPOS>BOND
     1     1    10 1   
     2     1    12 2   
     3     1    15 1   
     4     2    13 1   
     5     2    16 1   
     6     2    17 1   
     7     2    18 1   
     8     3     4 1   
     9     3    19 1   
    10     3    20 1   
    11     3    21 1   
    12     4     5 2   
    13     4     6 1   
    14     5     7 1   
    15     5    22 1   
    16     6    23 1   
    17     6    24 1   
    18     6    25 1   
    19     7     8 1   
    20     7    26 1   
    21     7    27 1   
    22     8     9 1   
    23     8    28 1   
    24     8    29 1   
    25     9    10 2   
    26     9    11 1   
    27    10    30 1   
    28    11    31 1   
    29    11    32 1   
    30    11    33 1   
    31    12    13 1   
    32    12    34 1   
    33    13    14 2   
@<TRIPOS>SUBSTRUCTURE
     1 DXJ         1 TEMP              0 ****  ****    0 ROOT
