@<TRIPOS>MOLECULE
DXK
   27    29     1     0     0
SMALL
No Charge or Current Charge


@<TRIPOS>ATOM
      1 CAC         -2.9330     1.0880     0.0000 ca         1 DXK      -0.029000
      2 CAE         -4.3050     0.7990    -0.0290 ca         1 DXK      -0.183000
      3 CAF         -4.7240    -0.5380    -0.0700 ca         1 DXK       0.349900
      4 NAD         -3.8590    -1.5750    -0.0830 nb         1 DXK      -0.678000
      5 CAB         -2.5330    -1.2960    -0.0550 ca         1 DXK       0.377900
      6 CAA         -1.9970     0.0190    -0.0130 cp         1 DXK      -0.204500
      7 C2          -0.5140     0.2560     0.0170 cp         1 DXK       0.277500
      8 N1          -0.0820     1.5430     0.0540 nb         1 DXK      -0.319000
      9 N3           0.2990    -0.8310     0.0050 nb         1 DXK      -0.236000
     10 C4           1.6240    -0.5950     0.0320 ca         1 DXK       0.168500
     11 NAM          2.7330    -1.4240     0.0360 na         1 DXK      -0.021100
     12 CAQ          2.6600    -2.8940     0.0020 c3         1 DXK       0.081900
     13 NAN          3.9330    -0.7060     0.0780 nc         1 DXK      -0.523100
     14 CAO          3.5450     0.5780     0.0990 cd         1 DXK       0.388800
     15 C5           2.1110     0.6720     0.0690 ca         1 DXK      -0.401900
     16 C6           1.2410     1.7450     0.0810 ca         1 DXK       0.470900
     17 NAP          1.6590     3.0280     0.1150 nv         1 DXK      -1.071900
     18 H1          -2.6070     2.1270     0.0320 ha         1 DXK       0.138000
     19 H2          -5.0410     1.5980    -0.0200 ha         1 DXK       0.124000
     20 H3          -5.7840    -0.7880    -0.0940 h4         1 DXK       0.018100
     21 H4          -1.8800    -2.1680    -0.0670 h4         1 DXK       0.039100
     22 H5           2.1370    -3.2130    -0.9070 h1         1 DXK       0.060033
     23 H6           3.6710    -3.3190     0.0060 h1         1 DXK       0.060033
     24 H7           2.1130    -3.2540     0.8810 h1         1 DXK       0.060033
     25 H8           4.2960     1.3580     0.1350 h4         1 DXK       0.045800
     26 H9           2.6180     3.2320    -0.1490 hn         1 DXK       0.503000
     27 H10          0.9750     3.7530    -0.0850 hn         1 DXK       0.503000
@<TRIPOS>BOND
     1     1     2 ar  
     2     1     6 ar  
     3     1    18 1   
     4     2     3 ar  
     5     2    19 1   
     6     3     4 ar  
     7     3    20 1   
     8     4     5 ar  
     9     5     6 ar  
    10     5    21 1   
    11     6     7 1   
    12     7     8 ar  
    13     7     9 ar  
    14     8    16 ar  
    15     9    10 ar  
    16    10    11 1   
    17    10    15 ar  
    18    11    12 1   
    19    11    13 1   
    20    12    22 1   
    21    12    23 1   
    22    12    24 1   
    23    13    14 2   
    24    14    15 1   
    25    14    25 1   
    26    15    16 ar  
    27    16    17 1   
    28    17    26 1   
    29    17    27 1   
@<TRIPOS>SUBSTRUCTURE
     1 DXK         1 TEMP              0 ****  ****    0 ROOT
