@<TRIPOS>MOLECULE
DXK
   27    29     1     0     0
SMALL
bcc


@<TRIPOS>ATOM
      1 CAC         -2.8510     1.0520     0.0240 ca         1 DXK      -0.047000
      2 CAE         -4.2080     0.7780     0.0290 ca         1 DXK      -0.266300
      3 CAF         -4.6180    -0.5460     0.0220 ca         1 DXK       0.415200
      4 NAD         -3.7690    -1.5690     0.0110 nb         1 DXK      -0.678000
      5 CAB         -2.4720    -1.3000     0.0060 ca         1 DXK       0.443200
      6 CAA         -1.9470    -0.0070     0.0130 cp         1 DXK      -0.269800
      7 C2          -0.4850     0.2220     0.0070 cp         1 DXK       0.803500
      8 N1          -0.0940     1.5000     0.0140 nb         1 DXK      -0.845000
      9 N3           0.2860    -0.8500    -0.0040 nb         1 DXK      -0.762000
     10 C4           1.5860    -0.5540    -0.0070 ca         1 DXK       0.496800
     11 NAM          2.6190    -1.4160    -0.0170 na         1 DXK       0.008200
     12 CAQ          2.5710    -2.8560    -0.0330 c3         1 DXK       0.052600
     13 NAN          3.7970    -0.7690    -0.0160 nc         1 DXK      -0.523100
     14 CAO          3.5340     0.5140    -0.0050 cd         1 DXK       0.388800
     15 C5           2.1370     0.7280     0.0010 ca         1 DXK      -0.532500
     16 C6           1.2060     1.7910     0.0110 ca         1 DXK       0.799200
     17 NAP          1.5720     3.0700     0.0200 nv         1 DXK      -0.961500
     18 H1          -2.4920     2.0710     0.0280 ha         1 DXK       0.156000
     19 H2          -4.9390     1.5750     0.0370 ha         1 DXK       0.142000
     20 H3          -5.6740    -0.7920     0.0250 h4         1 DXK       0.018100
     21 H4          -1.8010    -2.1510    -0.0030 h4         1 DXK       0.039100
     22 H5           3.0430    -3.2430    -0.9340 h1         1 DXK       0.060033
     23 H6           3.0750    -3.2620     0.8420 h1         1 DXK       0.060033
     24 H7           1.5300    -3.1670    -0.0170 h1         1 DXK       0.060033
     25 H8           4.3360     1.2360    -0.0020 h4         1 DXK       0.045800
     26 H9           2.5380     3.3460     0.0020 hn         1 DXK       0.447800
     27 H10          0.8740     3.7940     0.0150 hn         1 DXK       0.447800
@<TRIPOS>BOND
     1     1     2 ar  
     2     1     6 ar  
     3     1    18 1   
     4     2     3 ar  
     5     2    19 1   
     6     3     4 ar  
     7     3    20 1   
     8     4     5 ar  
     9     5     6 ar  
    10     5    21 1   
    11     6     7 1   
    12     7     8 ar  
    13     7     9 ar  
    14     8    16 ar  
    15     9    10 ar  
    16    10    11 1   
    17    10    15 ar  
    18    11    12 1   
    19    11    13 1   
    20    12    22 1   
    21    12    23 1   
    22    12    24 1   
    23    13    14 2   
    24    14    15 1   
    25    14    25 1   
    26    15    16 ar  
    27    16    17 1   
    28    17    26 1   
    29    17    27 1   
@<TRIPOS>SUBSTRUCTURE
     1 DXK         1 TEMP              0 ****  ****    0 ROOT
