@<TRIPOS>MOLECULE
DXL
   18    17     1     0     0
SMALL
No Charge or Current Charge


@<TRIPOS>ATOM
      1 OAA         -2.1360    -1.5970    -0.8200 o          1 DXL      -0.742750
      2 OAB         -1.3400     1.2190     1.3200 oh         1 DXL      -0.776000
      3 OAC          2.3550     0.9900    -1.1070 oh         1 DXL      -0.776000
      4 CAF         -2.2730    -0.6700    -0.0310 c          1 DXL       0.697500
      5 CAG         -0.9910     0.0130     0.5740 c3         1 DXL       0.004800
      6 CAH          0.0760     0.3270    -0.5260 c3         1 DXL       0.190300
      7 CAI          1.4050     0.9540     0.0020 c3         1 DXL       0.004800
      8 CAJ          1.9610     0.2360     1.2950 c          1 DXL       0.697500
      9 OAK          2.3090    -0.9370     1.2300 o          1 DXL      -0.742750
     10 OAL          0.3770    -0.8620    -1.2790 oh         1 DXL      -0.705000
     11 HAG         -0.5650    -0.7310     1.2610 h1         1 DXL       0.062200
     12 HAH         -0.3780     1.0550    -1.2120 h1         1 DXL      -0.005300
     13 HAI          1.1720     1.9810     0.3130 h1         1 DXL       0.062200
     14 HOAL        -0.4870    -1.3580    -1.3040 ho         1 DXL       0.480000
     15 HOAB        -2.3330     1.2300     1.3090 ho         1 DXL       0.517000
     16 OAD          2.1580     0.9200     2.2930 o          1 DXL      -0.742750
     17 OAE         -3.3600    -0.2040     0.2860 o          1 DXL      -0.742750
     18 HOAC         2.1510     0.1480    -1.5920 ho         1 DXL       0.517000
@<TRIPOS>BOND
     1     1     4 1   
     2     2     5 1   
     3     2    15 1   
     4     3     7 1   
     5     3    18 1   
     6     4     5 1   
     7     4    17 1   
     8     5     6 1   
     9     5    11 1   
    10     6     7 1   
    11     6    10 1   
    12     6    12 1   
    13     7     8 1   
    14     7    13 1   
    15     8     9 1   
    16     8    16 1   
    17    10    14 1   
@<TRIPOS>SUBSTRUCTURE
     1 DXL         1 TEMP              0 ****  ****    0 ROOT
