@<TRIPOS>MOLECULE
DXL
   18    17     1     0     0
SMALL
bcc


@<TRIPOS>ATOM
      1 OAA         -2.1770    -1.7270    -0.2490 o          1 DXL      -0.848050
      2 OAB         -1.4530     1.5280     0.9610 oh         1 DXL      -0.653800
      3 OAC          2.0830     1.2700    -1.0880 oh         1 DXL      -0.653800
      4 CAF         -2.3500    -0.5340     0.1120 c          1 DXL       0.908100
      5 CAG         -1.1000     0.2140     0.6100 c3         1 DXL      -0.018400
      6 CAH         -0.0050     0.2250    -0.4730 c3         1 DXL       0.167100
      7 CAI          1.3000     0.8600     0.0120 c3         1 DXL      -0.018400
      8 CAJ          2.1320    -0.1320     0.8590 c          1 DXL       0.908100
      9 OAK          3.2360    -0.4440     0.3440 o          1 DXL      -0.848050
     10 OAL          0.2750    -1.0730    -0.9520 oh         1 DXL      -0.642800
     11 HAG         -0.7030    -0.3160     1.4840 h1         1 DXL       0.062200
     12 HAH         -0.3870     0.8600    -1.2940 h1         1 DXL      -0.005300
     13 HAI          1.0530     1.7320     0.6310 h1         1 DXL       0.062200
     14 HOAL        -0.5380    -1.5940    -0.7900 ho         1 DXL       0.441000
     15 HOAB        -2.3920     1.5800     0.7130 ho         1 DXL       0.418000
     16 OAD          1.6720    -0.5280     1.9350 o          1 DXL      -0.848050
     17 OAE         -3.4260     0.0790     0.1700 o          1 DXL      -0.848050
     18 HOAC         2.8810     0.7150    -0.9720 ho         1 DXL       0.418000
@<TRIPOS>BOND
     1     1     4 1   
     2     2     5 1   
     3     2    15 1   
     4     3     7 1   
     5     3    18 1   
     6     4     5 1   
     7     4    17 1   
     8     5     6 1   
     9     5    11 1   
    10     6     7 1   
    11     6    10 1   
    12     6    12 1   
    13     7     8 1   
    14     7    13 1   
    15     8     9 1   
    16     8    16 1   
    17    10    14 1   
@<TRIPOS>SUBSTRUCTURE
     1 DXL         1 TEMP              0 ****  ****    0 ROOT
