@<TRIPOS>MOLECULE
DXM
   60    64     1     0     0
SMALL
abcg2


@<TRIPOS>ATOM
      1 C4          42.6540   -17.8250    10.8570 cc         1 DXM      -0.349600
      2 C5          43.2980   -17.8960     9.5980 cc         1 DXM       0.451200
      3 C6          43.0810   -14.5740     8.2810 c3         1 DXM       0.101300
      4 N1          41.1790   -18.8860    14.7700 na         1 DXM       0.112800
      5 C7          42.2630   -15.4630    10.3840 c          1 DXM       0.506200
      6 C8          43.8810   -19.1810     9.1450 ca         1 DXM      -0.150900
      7 N2          41.6240   -18.4450    13.5620 nc         1 DXM      -0.571800
      8 C9          43.7470   -19.6450     7.8400 ca         1 DXM       0.196000
      9 C10         44.2910   -20.8490     7.3940 ca         1 DXM      -0.123000
     10 C11         45.1660   -21.5340     5.2240 c          1 DXM       0.649700
     11 C12         44.8070   -21.9630     3.8700 cc         1 DXM      -0.295600
     12 N3          41.4870   -16.3470    12.4240 nu         1 DXM      -0.770900
     13 C13         43.5920   -22.2910     3.3180 cd         1 DXM      -0.080000
     14 C14         43.6790   -22.6760     1.9550 cd         1 DXM      -0.117300
     15 C15         44.9720   -22.6390     1.4870 cc         1 DXM      -0.202300
     16 N4          43.4360   -16.8690     8.7970 nd         1 DXM      -0.443300
     17 C1          41.3870   -20.2710    15.1330 c3         1 DXM       0.078900
     18 C16         45.3920   -22.9830     0.0910 c6         1 DXM      -0.006100
     19 C17         44.2730   -23.7530    -0.6230 c6         1 DXM      -0.071400
     20 C18         42.9140   -23.0870    -0.3980 c6         1 DXM      -0.072400
     21 C19         42.5280   -23.1000     1.0850 c6         1 DXM      -0.008100
     22 C2          41.2180   -17.1780    13.4980 cd         1 DXM       0.512900
     23 C20         44.9790   -21.6130     8.3330 ca         1 DXM       0.212000
     24 C21         45.1500   -21.1970     9.6390 ca         1 DXM      -0.160000
     25 C22         44.5990   -19.9870    10.0340 ca         1 DXM      -0.051000
     26 C23         40.5050   -16.8000    14.6560 cd         1 DXM      -0.265000
     27 C24         40.4980   -17.9320    15.4500 cc         1 DXM      -0.096300
     28 C25         39.8920   -18.1590    16.7910 c3         1 DXM      -0.034800
     29 C3          42.1380   -16.6220    11.2670 cd         1 DXM       0.113800
     30 F1          43.0300   -18.9430     6.9410 f          1 DXM      -0.165000
     31 F2          45.4640   -22.8100     7.9560 f          1 DXM      -0.157000
     32 N5          42.9140   -15.6930     9.2060 n          1 DXM      -0.110800
     33 N6          44.1140   -21.2700     6.0660 ns         1 DXM      -0.143000
     34 O1          41.8100   -14.3460    10.6770 o          1 DXM      -0.581000
     35 O2          46.3350   -21.4220     5.5840 o          1 DXM      -0.576100
     36 S1          46.0810   -22.1360     2.7050 ss         1 DXM       0.303000
     37 H1          42.5610   -18.7020    11.4740 ha         1 DXM       0.227000
     38 H63         43.6180   -14.9470     7.4160 h1         1 DXM       0.059367
     39 H62         42.1060   -14.1890     7.9840 h1         1 DXM       0.059367
     40 H61         43.6420   -13.7740     8.7620 h1         1 DXM       0.059367
     41 H2          42.6570   -22.2770     3.8630 ha         1 DXM       0.129000
     42 H11         42.3930   -20.5670    14.8430 h1         1 DXM       0.055367
     43 H12         41.2790   -20.3790    16.2090 h1         1 DXM       0.055367
     44 H13         40.6620   -20.9170    14.6330 h1         1 DXM       0.055367
     45 H162        46.3150   -23.5670     0.1020 hc         1 DXM       0.054200
     46 H161        45.6150   -22.0620    -0.4590 hc         1 DXM       0.054200
     47 H172        44.2410   -24.7790    -0.2430 hc         1 DXM       0.044700
     48 H171        44.4990   -23.8110    -1.6900 hc         1 DXM       0.044700
     49 H182        42.9610   -22.0520    -0.7520 hc         1 DXM       0.043700
     50 H181        42.1430   -23.5920    -0.9830 hc         1 DXM       0.043700
     51 H192        41.6690   -22.4480     1.2620 hc         1 DXM       0.049200
     52 H191        42.2120   -24.1090     1.3730 hc         1 DXM       0.049200
     53 H21         45.6970   -21.8210    10.3310 ha         1 DXM       0.141000
     54 H22         44.7300   -19.6550    11.0540 ha         1 DXM       0.131000
     55 H23         40.0680   -15.8420    14.8810 ha         1 DXM       0.150000
     56 H253        39.1410   -18.9520    16.7600 hc         1 DXM       0.054033
     57 H252        40.6460   -18.4470    17.5270 hc         1 DXM       0.054033
     58 H251        39.4110   -17.2450    17.1340 hc         1 DXM       0.054033
     59 H4          43.1960   -21.1530     5.6650 hn         1 DXM       0.166000
     60 H5          41.1760   -15.3880    12.5000 hn         1 DXM       0.530000
@<TRIPOS>BOND
     1     1     2 1   
     2     1    29 2   
     3     1    37 1   
     4     2     6 1   
     5     2    16 2   
     6     3    32 1   
     7     3    38 1   
     8     3    39 1   
     9     3    40 1   
    10     4     7 1   
    11     4    17 1   
    12     4    27 1   
    13     5    29 1   
    14     5    32 1   
    15     5    34 2   
    16     6     8 ar  
    17     6    25 ar  
    18     7    22 2   
    19     8     9 ar  
    20     8    30 1   
    21     9    23 ar  
    22     9    33 1   
    23    10    11 1   
    24    10    33 1   
    25    10    35 2   
    26    11    13 2   
    27    11    36 1   
    28    12    22 1   
    29    12    29 1   
    30    12    60 1   
    31    13    14 1   
    32    13    41 1   
    33    14    15 2   
    34    14    21 1   
    35    15    18 1   
    36    15    36 1   
    37    16    32 1   
    38    17    42 1   
    39    17    43 1   
    40    17    44 1   
    41    18    19 1   
    42    18    45 1   
    43    18    46 1   
    44    19    20 1   
    45    19    47 1   
    46    19    48 1   
    47    20    21 1   
    48    20    49 1   
    49    20    50 1   
    50    21    51 1   
    51    21    52 1   
    52    22    26 1   
    53    23    24 ar  
    54    23    31 1   
    55    24    25 ar  
    56    24    53 1   
    57    25    54 1   
    58    26    27 2   
    59    26    55 1   
    60    27    28 1   
    61    28    56 1   
    62    28    57 1   
    63    28    58 1   
    64    33    59 1   
@<TRIPOS>SUBSTRUCTURE
     1 DXM         1 TEMP              0 ****  ****    0 ROOT
