@<TRIPOS>MOLECULE
DXM
   60    64     1     0     0
SMALL
No Charge or Current Charge


@<TRIPOS>ATOM
      1 C4          42.3110   -17.9950    10.7540 cc         1 DXM      -0.349600
      2 C5          42.8760   -18.1600     9.4360 cc         1 DXM       0.451200
      3 C6          42.5640   -14.8500     7.9720 c3         1 DXM       0.101300
      4 N1          41.5410   -18.6680    15.1260 na         1 DXM       0.112800
      5 C7          41.8570   -15.6120    10.2260 c          1 DXM       0.506200
      6 C8          43.4770   -19.4670     9.0570 ca         1 DXM      -0.150900
      7 N2          41.8880   -18.3690    13.8200 nc         1 DXM      -0.571800
      8 C9          43.6600   -19.8590     7.6990 ca         1 DXM       0.196000
      9 C10         44.2860   -21.0770     7.3570 ca         1 DXM      -0.123000
     10 C11         45.4590   -22.0030     5.2780 c          1 DXM       0.649700
     11 C12         45.1550   -22.2700     3.8570 cc         1 DXM      -0.295600
     12 N3          41.2470   -16.5850    12.4210 nu         1 DXM      -0.770900
     13 C13         43.9690   -22.0150     3.2020 cd         1 DXM      -0.080000
     14 C14         43.9980   -22.3920     1.8320 cd         1 DXM      -0.117300
     15 C15         45.1990   -22.9380     1.4440 cc         1 DXM      -0.202300
     16 N4          42.9740   -17.1540     8.5580 nd         1 DXM      -0.443300
     17 C1          42.1040   -19.8590    15.7830 c3         1 DXM       0.078900
     18 C16         45.5020   -23.4060     0.0380 c6         1 DXM      -0.006100
     19 C17         44.1970   -23.5770    -0.7820 c6         1 DXM      -0.071400
     20 C18         43.2480   -22.3680    -0.5870 c6         1 DXM      -0.072400
     21 C19         42.8180   -22.2270     0.8950 c6         1 DXM      -0.008100
     22 C2          41.2030   -17.2750    13.5950 cd         1 DXM       0.512900
     23 C20         44.7220   -21.9370     8.3850 ca         1 DXM       0.212000
     24 C21         44.5680   -21.5650     9.7240 ca         1 DXM      -0.160000
     25 C22         43.9680   -20.3430    10.0600 ca         1 DXM      -0.051000
     26 C23         40.4460   -16.8470    14.6930 cd         1 DXM      -0.265000
     27 C24         40.6540   -17.7500    15.6950 cc         1 DXM      -0.096300
     28 C25         40.1000   -17.7980    17.0930 c3         1 DXM      -0.034800
     29 C3          41.8170   -16.7800    11.1660 cd         1 DXM       0.113800
     30 F1          43.1890   -19.1000     6.6810 f          1 DXM      -0.165000
     31 F2          45.2440   -23.1520     8.1080 f          1 DXM      -0.157000
     32 N5          42.4520   -15.9250     8.9800 n          1 DXM      -0.110800
     33 N6          44.4140   -21.4160     5.9770 ns         1 DXM      -0.143000
     34 O1          41.4190   -14.4950    10.5050 o          1 DXM      -0.581000
     35 O2          46.5490   -22.2550     5.7800 o          1 DXM      -0.576100
     36 S1          46.3450   -22.9900     2.7820 ss         1 DXM       0.303000
     37 H1          42.2340   -18.8560    11.3960 ha         1 DXM       0.227000
     38 H63         43.0400   -15.2230     7.0560 h1         1 DXM       0.059367
     39 H62         41.5640   -14.4730     7.7230 h1         1 DXM       0.059367
     40 H61         43.1680   -14.0280     8.3750 h1         1 DXM       0.059367
     41 H2          43.0900   -21.5750     3.6660 ha         1 DXM       0.129000
     42 H11         42.7630   -20.3980    15.0920 h1         1 DXM       0.055367
     43 H12         42.6790   -19.5510    16.6650 h1         1 DXM       0.055367
     44 H13         41.2890   -20.5220    16.0950 h1         1 DXM       0.055367
     45 H162        46.0570   -24.3530     0.0500 hc         1 DXM       0.054200
     46 H161        46.1510   -22.6750    -0.4630 hc         1 DXM       0.054200
     47 H172        43.6840   -24.4980    -0.4710 hc         1 DXM       0.044700
     48 H171        44.4400   -23.6990    -1.8460 hc         1 DXM       0.044700
     49 H182        43.7550   -21.4490    -0.9130 hc         1 DXM       0.043700
     50 H181        42.3590   -22.4770    -1.2240 hc         1 DXM       0.043700
     51 H192        42.3330   -21.2530     1.0480 hc         1 DXM       0.049200
     52 H191        42.0600   -22.9870     1.1260 hc         1 DXM       0.049200
     53 H21         44.9200   -22.2300    10.5080 ha         1 DXM       0.141000
     54 H22         43.9200   -20.0840    11.1140 ha         1 DXM       0.131000
     55 H23         39.8150   -15.9680    14.7380 ha         1 DXM       0.150000
     56 H253        39.5320   -18.7210    17.2580 hc         1 DXM       0.054033
     57 H252        40.9060   -17.7560    17.8360 hc         1 DXM       0.054033
     58 H251        39.4270   -16.9520    17.2790 hc         1 DXM       0.054033
     59 H4          43.6090   -21.1840     5.4120 hn         1 DXM       0.166000
     60 H5          40.8010   -15.6710    12.5140 hn         1 DXM       0.530000
@<TRIPOS>BOND
     1     1     2 1   
     2     1    29 2   
     3     1    37 1   
     4     2     6 1   
     5     2    16 2   
     6     3    32 1   
     7     3    38 1   
     8     3    39 1   
     9     3    40 1   
    10     4     7 1   
    11     4    17 1   
    12     4    27 1   
    13     5    29 1   
    14     5    32 1   
    15     5    34 2   
    16     6     8 ar  
    17     6    25 ar  
    18     7    22 2   
    19     8     9 ar  
    20     8    30 1   
    21     9    23 ar  
    22     9    33 1   
    23    10    11 1   
    24    10    33 1   
    25    10    35 2   
    26    11    13 2   
    27    11    36 1   
    28    12    22 1   
    29    12    29 1   
    30    12    60 1   
    31    13    14 1   
    32    13    41 1   
    33    14    15 2   
    34    14    21 1   
    35    15    18 1   
    36    15    36 1   
    37    16    32 1   
    38    17    42 1   
    39    17    43 1   
    40    17    44 1   
    41    18    19 1   
    42    18    45 1   
    43    18    46 1   
    44    19    20 1   
    45    19    47 1   
    46    19    48 1   
    47    20    21 1   
    48    20    49 1   
    49    20    50 1   
    50    21    51 1   
    51    21    52 1   
    52    22    26 1   
    53    23    24 ar  
    54    23    31 1   
    55    24    25 ar  
    56    24    53 1   
    57    25    54 1   
    58    26    27 2   
    59    26    55 1   
    60    27    28 1   
    61    28    56 1   
    62    28    57 1   
    63    28    58 1   
    64    33    59 1   
@<TRIPOS>SUBSTRUCTURE
     1 DXM         1 TEMP              0 ****  ****    0 ROOT
