@<TRIPOS>MOLECULE
DXO
   43    45     1     0     0
SMALL
bcc


@<TRIPOS>ATOM
      1 C11          1.5540    -1.9370    -2.3170 c3         1 DXO      -0.051300
      2 C10          2.4270    -1.7740    -1.1040 ca         1 DXO      -0.034800
      3 C9           3.5920    -2.5270    -0.9820 ca         1 DXO      -0.140000
      4 C8           4.4090    -2.3940     0.1290 ca         1 DXO      -0.111000
      5 C7           4.0760    -1.4980     1.1330 ca         1 DXO      -0.140000
      6 C5           2.9280    -0.7170     1.0380 ca         1 DXO      -0.034800
      7 C6           2.5850     0.2510     2.1350 c3         1 DXO      -0.051300
      8 C4           2.1080    -0.8700    -0.0860 cp         1 DXO      -0.140500
      9 C3           0.8760    -0.0480    -0.2040 cp         1 DXO       0.788500
     10 N2           1.0400     1.2610    -0.3930 nb         1 DXO      -0.793000
     11 C1          -0.0980     1.9330    -0.4910 ca         1 DXO       0.812300
     12 S           -0.0530     3.6650    -0.7110 ss         1 DXO      -0.258400
     13 C            1.7150     4.0170    -0.6840 c3         1 DXO      -0.024000
     14 N1          -0.2780    -0.6710    -0.1190 nb         1 DXO      -0.811000
     15 C2          -1.3730     0.1010    -0.2580 ca         1 DXO       0.945900
     16 N           -1.3130     1.4270    -0.4440 nb         1 DXO      -0.806000
     17 N3          -2.5730    -0.4850    -0.2050 nh         1 DXO      -0.762300
     18 C15         -3.8170     0.2440    -0.3920 c6         1 DXO       0.222800
     19 C14         -4.7820    -0.0750     0.7370 c6         1 DXO       0.138800
     20 N4          -4.9800    -1.5090     0.8180 n7         1 DXO      -0.809200
     21 C13         -3.7290    -2.1890     1.0900 c6         1 DXO       0.138800
     22 C12         -2.7450    -1.9190    -0.0350 c6         1 DXO       0.222800
     23 H111         0.6120    -2.4250    -2.0660 hc         1 DXO       0.046367
     24 H112         1.3050    -0.9770    -2.7730 hc         1 DXO       0.046367
     25 H113         2.0520    -2.5430    -3.0720 hc         1 DXO       0.046367
     26 H9           3.8580    -3.2220    -1.7680 ha         1 DXO       0.131000
     27 H8           5.3090    -2.9900     0.2120 ha         1 DXO       0.130000
     28 H7           4.7160    -1.4000     2.0010 ha         1 DXO       0.131000
     29 H61C         2.6500     1.2830     1.7890 hc         1 DXO       0.046367
     30 H62C         1.5690     0.1020     2.5050 hc         1 DXO       0.046367
     31 H63C         3.2640     0.1350     2.9780 hc         1 DXO       0.046367
     32 HC1          2.1580     3.7360     0.2680 h1         1 DXO       0.071700
     33 HC2          2.2300     3.5100    -1.4950 h1         1 DXO       0.071700
     34 HC3          1.8060     5.0930    -0.8180 h1         1 DXO       0.071700
     35 H151        -3.6150     1.3100    -0.4300 h1         1 DXO       0.071450
     36 H152        -4.2580    -0.0540    -1.3490 h1         1 DXO       0.071450
     37 H121        -3.1270    -2.3430    -0.9690 h1         1 DXO       0.071450
     38 H122        -1.7860    -2.3790     0.1780 h1         1 DXO       0.071450
     39 H141        -4.3900     0.3590     1.6700 h1         1 DXO       0.041700
     40 H142        -5.7360     0.4120     0.5270 h1         1 DXO       0.041700
     41 H4          -5.6520    -1.7230     1.5420 hn         1 DXO       0.360800
     42 H131        -3.2690    -1.8780     2.0420 h1         1 DXO       0.041700
     43 H132        -3.9060    -3.2640     1.1500 h1         1 DXO       0.041700
@<TRIPOS>BOND
     1     1     2 1   
     2     1    23 1   
     3     1    24 1   
     4     1    25 1   
     5     2     3 ar  
     6     2     8 ar  
     7     3     4 ar  
     8     3    26 1   
     9     4     5 ar  
    10     4    27 1   
    11     5     6 ar  
    12     5    28 1   
    13     6     7 1   
    14     6     8 ar  
    15     7    29 1   
    16     7    30 1   
    17     7    31 1   
    18     8     9 1   
    19     9    10 ar  
    20     9    14 ar  
    21    10    11 ar  
    22    11    12 1   
    23    11    16 ar  
    24    12    13 1   
    25    13    32 1   
    26    13    33 1   
    27    13    34 1   
    28    14    15 ar  
    29    15    16 ar  
    30    15    17 1   
    31    17    18 1   
    32    17    22 1   
    33    18    19 1   
    34    18    35 1   
    35    18    36 1   
    36    19    20 1   
    37    19    39 1   
    38    19    40 1   
    39    20    21 1   
    40    20    41 1   
    41    21    22 1   
    42    21    42 1   
    43    21    43 1   
    44    22    37 1   
    45    22    38 1   
@<TRIPOS>SUBSTRUCTURE
     1 DXO         1 TEMP              0 ****  ****    0 ROOT
