@<TRIPOS>MOLECULE
DXO
   43    45     1     0     0
SMALL
No Charge or Current Charge


@<TRIPOS>ATOM
      1 C11          1.3620    -2.2220    -2.0970 c3         1 DXO      -0.051300
      2 C10          2.3790    -1.8990    -1.0040 ca         1 DXO      -0.034800
      3 C9           3.5460    -2.6820    -0.9370 ca         1 DXO      -0.122000
      4 C8           4.5300    -2.4170     0.0240 ca         1 DXO      -0.093000
      5 C7           4.3540    -1.3660     0.9320 ca         1 DXO      -0.122000
      6 C5           3.1930    -0.5700     0.8930 ca         1 DXO      -0.034800
      7 C6           3.0510     0.5400     1.9320 c3         1 DXO      -0.051300
      8 C4           2.1830    -0.8260    -0.0830 cp         1 DXO      -0.140500
      9 C3           0.9440     0.0150    -0.1400 cp         1 DXO       0.262500
     10 N2           1.0830     1.3340    -0.3750 nb         1 DXO      -0.267000
     11 C1          -0.0570     2.0500    -0.4160 ca         1 DXO       0.286300
     12 S            0.0460     3.8110    -0.7140 ss         1 DXO      -0.306300
     13 C            1.8610     4.1740    -0.6720 c3         1 DXO       0.023900
     14 N1          -0.2440    -0.5910     0.0450 nb         1 DXO      -0.285000
     15 C2          -1.3320     0.2010    -0.0220 ca         1 DXO       0.419900
     16 N           -1.2870     1.5300    -0.2470 nb         1 DXO      -0.280000
     17 N3          -2.6040    -0.4020     0.1650 nh         1 DXO      -0.762300
     18 C15         -3.8750     0.3470    -0.1510 c6         1 DXO       0.222800
     19 C14         -5.1280    -0.2230     0.5940 c6         1 DXO       0.138800
     20 N4          -5.2900    -1.6940     0.4300 n7         1 DXO      -0.864400
     21 C13         -4.0520    -2.4050     0.8560 c6         1 DXO       0.138800
     22 C12         -2.7660    -1.9020     0.1200 c6         1 DXO       0.222800
     23 H111         0.4990    -2.7570    -1.6850 hc         1 DXO       0.046367
     24 H112         0.9950    -1.3110    -2.5840 hc         1 DXO       0.046367
     25 H113         1.7960    -2.8520    -2.8830 hc         1 DXO       0.046367
     26 H9           3.6980    -3.5000    -1.6380 ha         1 DXO       0.113000
     27 H8           5.4300    -3.0270     0.0650 ha         1 DXO       0.112000
     28 H7           5.1250    -1.1730     1.6750 ha         1 DXO       0.113000
     29 H61C         3.2600     1.5210     1.4900 hc         1 DXO       0.046367
     30 H62C         2.0390     0.5660     2.3540 hc         1 DXO       0.046367
     31 H63C         3.7430     0.4030     2.7710 hc         1 DXO       0.046367
     32 HC1          2.2760     3.8890     0.3030 h1         1 DXO       0.071700
     33 HC2          2.3730     3.6100    -1.4620 h1         1 DXO       0.071700
     34 HC3          2.0270     5.2460    -0.8330 h1         1 DXO       0.071700
     35 H151        -3.7910     1.4090     0.1250 h1         1 DXO       0.071450
     36 H152        -4.0650     0.3110    -1.2340 h1         1 DXO       0.071450
     37 H121        -2.8090    -2.2360    -0.9270 h1         1 DXO       0.071450
     38 H122        -1.9090    -2.4110     0.5850 h1         1 DXO       0.071450
     39 H141        -5.0330     0.0100     1.6650 h1         1 DXO       0.041700
     40 H142        -6.0300     0.2900     0.2290 h1         1 DXO       0.041700
     41 H4          -6.0780    -2.0130     1.0090 hn         1 DXO       0.416000
     42 H131        -3.9130    -2.2640     1.9380 h1         1 DXO       0.041700
     43 H132        -4.1700    -3.4850     0.6820 h1         1 DXO       0.041700
@<TRIPOS>BOND
     1     1     2 1   
     2     1    23 1   
     3     1    24 1   
     4     1    25 1   
     5     2     3 ar  
     6     2     8 ar  
     7     3     4 ar  
     8     3    26 1   
     9     4     5 ar  
    10     4    27 1   
    11     5     6 ar  
    12     5    28 1   
    13     6     7 1   
    14     6     8 ar  
    15     7    29 1   
    16     7    30 1   
    17     7    31 1   
    18     8     9 1   
    19     9    10 ar  
    20     9    14 ar  
    21    10    11 ar  
    22    11    12 1   
    23    11    16 ar  
    24    12    13 1   
    25    13    32 1   
    26    13    33 1   
    27    13    34 1   
    28    14    15 ar  
    29    15    16 ar  
    30    15    17 1   
    31    17    18 1   
    32    17    22 1   
    33    18    19 1   
    34    18    35 1   
    35    18    36 1   
    36    19    20 1   
    37    19    39 1   
    38    19    40 1   
    39    20    21 1   
    40    20    41 1   
    41    21    22 1   
    42    21    42 1   
    43    21    43 1   
    44    22    37 1   
    45    22    38 1   
@<TRIPOS>SUBSTRUCTURE
     1 DXO         1 TEMP              0 ****  ****    0 ROOT
