@<TRIPOS>MOLECULE
DXQ
   78    81     1     0     0
SMALL
abcg2


@<TRIPOS>ATOM
      1 N1          -1.9660    -0.4090    -1.0460 nb         1 DXQ      -0.334000
      2 C2          -1.1440    -1.4580    -1.2370 ca         1 DXQ       0.438900
      3 N3           0.1630    -1.4600    -1.0680 nb         1 DXQ      -0.289000
      4 C4           0.7220    -0.2850    -0.7020 ca         1 DXQ       0.118000
      5 C5          -0.0260     0.8840    -0.4950 ca         1 DXQ      -0.220000
      6 C6          -1.4430     0.7410    -0.6800 ca         1 DXQ       0.437900
      7 CAA          1.9930     4.4160     0.6200 c3         1 DXQ       0.145900
      8 CAB          9.3570    -1.7430     0.9150 c3         1 DXQ       0.149600
      9 CAC          9.3040     0.4220    -0.0620 c3         1 DXQ       0.149600
     10 CAF          2.1230    -0.2320    -0.5160 ca         1 DXQ      -0.208000
     11 CAG          0.6210     2.0840    -0.1260 ca         1 DXQ      -0.130000
     12 CAH          6.2990     0.3470     0.3330 c3         1 DXQ      -0.084400
     13 CAI         -0.9460    -4.5530    -0.3510 c3         1 DXQ      -0.105400
     14 CAK         -4.3170     3.0290    -0.9340 c6         1 DXQ      -0.093900
     15 CAL         -4.2960     1.2510     0.8150 c6         1 DXQ      -0.093900
     16 CAM          7.2620    -0.8290     0.2210 c3         1 DXQ       0.167800
     17 CAN         -2.3020    -4.7380     0.3250 c3         1 DXQ       0.178800
     18 CAO         -1.0020    -3.8470    -1.6980 c3         1 DXQ       0.231800
     19 CAP         -5.8360     2.9620    -0.9070 c6         1 DXQ       0.168300
     20 CAQ         -5.8150     1.2500     0.7670 c6         1 DXQ       0.168300
     21 CAR         -3.7730    -2.8540    -0.2090 c3         1 DXQ       0.150800
     22 CAS         -3.1820    -2.7360    -1.6170 c3         1 DXQ       0.232800
     23 NAV         -2.2710     1.7850    -0.4990 nu         1 DXQ      -0.925100
     24 CAY          1.9780     2.1240     0.0480 ca         1 DXQ       0.083100
     25 CAZ          2.7440     0.9340    -0.1450 ca         1 DXQ       0.171100
     26 CBE         -3.7160     1.6900    -0.5280 c6         1 DXQ       0.234500
     27 NBF          8.5800    -0.5330     0.7500 n3         1 DXQ      -0.711600
     28 NBG         -2.8880    -3.4740     0.7530 n3         1 DXQ      -0.731600
     29 NBH         -6.3290     2.5550     0.3940 n3         1 DXQ      -0.716600
     30 NBI         -1.7430    -2.6010    -1.6660 nh         1 DXQ      -0.750300
     31 HAA          2.7350     5.1610     0.8980 h1         1 DXQ       0.037367
     32 HAAA         1.4700     4.7570    -0.2780 h1         1 DXQ       0.037367
     33 HAAB         1.2670     4.3200     1.4320 h1         1 DXQ       0.037367
     34 HAB         10.3180    -1.5080     1.3760 h1         1 DXQ       0.030700
     35 HABA         8.8360    -2.4430     1.5700 h1         1 DXQ       0.030700
     36 HABB         9.5630    -2.2610    -0.0350 h1         1 DXQ       0.030700
     37 HAC          9.4940     0.0570    -1.0840 h1         1 DXQ       0.030700
     38 HACA         8.7620     1.3640    -0.1410 h1         1 DXQ       0.030700
     39 HACB        10.2690     0.6400     0.3970 h1         1 DXQ       0.030700
     40 HAD         -2.8230    -3.9180     2.7970 h1         1 DXQ       0.027033
     41 HADA        -3.8570    -2.5620     2.3600 h1         1 DXQ       0.027033
     42 HADB        -4.4100    -4.2140     2.0680 h1         1 DXQ       0.027033
     43 HAE         -8.2400     1.8800    -0.2730 h1         1 DXQ       0.030700
     44 HAEA        -8.1260     2.3250     1.4380 h1         1 DXQ       0.030700
     45 HAEB        -8.1390     3.5830     0.2040 h1         1 DXQ       0.030700
     46 HAF          2.6840    -1.1430    -0.6760 ha         1 DXQ       0.136000
     47 HAG          0.0430     2.9870     0.0200 ha         1 DXQ       0.108000
     48 HAH          6.6210     1.1760    -0.3020 hc         1 DXQ       0.064200
     49 HAHA         6.2980     0.7070     1.3650 hc         1 DXQ       0.064200
     50 HAI         -0.2960    -3.9950     0.3280 hc         1 DXQ       0.055200
     51 HAIA        -0.4850    -5.5340    -0.4990 hc         1 DXQ       0.055200
     52 HAJ          4.8750    -0.4340    -1.0940 h1         1 DXQ       0.036700
     53 HAJA         4.5380    -0.8730     0.5850 h1         1 DXQ       0.036700
     54 HAK         -3.9820     3.3060    -1.9350 hc         1 DXQ       0.053700
     55 HAKA        -3.9770     3.8110    -0.2470 hc         1 DXQ       0.053700
     56 HAL         -3.9530     1.9320     1.5990 hc         1 DXQ       0.053700
     57 HALA        -3.9370     0.2510     1.0690 hc         1 DXQ       0.053700
     58 HAM          6.8550    -1.6660     0.7960 h1         1 DXQ       0.029200
     59 HAMA         7.3110    -1.1700    -0.8290 h1         1 DXQ       0.029200
     60 HAN         -2.9840    -5.3100    -0.3250 h1         1 DXQ       0.026700
     61 HANA        -2.1480    -5.3610     1.2080 h1         1 DXQ       0.026700
     62 HAO          0.0060    -3.6580    -2.0630 h1         1 DXQ       0.056200
     63 HAOA        -1.4920    -4.4950    -2.4290 h1         1 DXQ       0.056200
     64 HAP         -6.2460     3.9470    -1.1450 h1         1 DXQ       0.032700
     65 HAPA        -6.1840     2.2780    -1.7030 h1         1 DXQ       0.032700
     66 HAQ         -6.1580     0.4660     0.0670 h1         1 DXQ       0.032700
     67 HAQA        -6.2130     0.9840     1.7490 h1         1 DXQ       0.032700
     68 HAR         -4.0140    -1.8560     0.1630 h1         1 DXQ       0.032700
     69 HARA        -4.7320    -3.3950    -0.3010 h1         1 DXQ       0.032700
     70 HAS         -3.4280    -3.6260    -2.1990 h1         1 DXQ       0.052200
     71 HASA        -3.6610    -1.8960    -2.1190 h1         1 DXQ       0.052200
     72 HNAV        -1.8950     2.6260    -0.0920 hn         1 DXQ       0.487000
     73 HBE         -3.9790     0.9420    -1.2810 h1         1 DXQ       0.082700
     74 OAW          2.6940     3.2110     0.3970 os         1 DXQ      -0.320100
     75 OAX          4.0570     1.0740     0.0650 os         1 DXQ      -0.325100
     76 CAD         -3.5280    -3.5550     2.0470 c3         1 DXQ       0.164100
     77 CAE         -7.7730     2.5810     0.4370 c3         1 DXQ       0.152100
     78 CAJ          4.8970    -0.0640    -0.0630 c3         1 DXQ       0.160600
@<TRIPOS>BOND
     1     1     2 ar  
     2     1     6 ar  
     3     2     3 ar  
     4     2    30 1   
     5     3     4 ar  
     6     4     5 ar  
     7     4    10 ar  
     8     5     6 ar  
     9     5    11 ar  
    10     6    23 1   
    11     7    31 1   
    12     7    32 1   
    13     7    33 1   
    14     7    74 1   
    15     8    27 1   
    16     8    34 1   
    17     8    35 1   
    18     8    36 1   
    19     9    27 1   
    20     9    37 1   
    21     9    38 1   
    22     9    39 1   
    23    10    25 ar  
    24    10    46 1   
    25    11    24 ar  
    26    11    47 1   
    27    12    16 1   
    28    12    48 1   
    29    12    49 1   
    30    12    78 1   
    31    13    17 1   
    32    13    18 1   
    33    13    50 1   
    34    13    51 1   
    35    14    19 1   
    36    14    26 1   
    37    14    54 1   
    38    14    55 1   
    39    15    20 1   
    40    15    26 1   
    41    15    56 1   
    42    15    57 1   
    43    16    27 1   
    44    16    58 1   
    45    16    59 1   
    46    17    28 1   
    47    17    60 1   
    48    17    61 1   
    49    18    30 1   
    50    18    62 1   
    51    18    63 1   
    52    19    29 1   
    53    19    64 1   
    54    19    65 1   
    55    20    29 1   
    56    20    66 1   
    57    20    67 1   
    58    21    22 1   
    59    21    28 1   
    60    21    68 1   
    61    21    69 1   
    62    22    30 1   
    63    22    70 1   
    64    22    71 1   
    65    23    26 1   
    66    23    72 1   
    67    24    25 ar  
    68    24    74 1   
    69    25    75 1   
    70    26    73 1   
    71    28    76 1   
    72    29    77 1   
    73    40    76 1   
    74    41    76 1   
    75    42    76 1   
    76    43    77 1   
    77    44    77 1   
    78    45    77 1   
    79    52    78 1   
    80    53    78 1   
    81    75    78 1   
@<TRIPOS>SUBSTRUCTURE
     1 DXQ         1 TEMP              0 ****  ****    0 ROOT
