@<TRIPOS>MOLECULE
DXQ
   78    81     1     0     0
SMALL
No Charge or Current Charge


@<TRIPOS>ATOM
      1 N1          -1.9130    -0.4450    -1.3090 nb         1 DXQ      -0.334000
      2 C2          -1.1000    -1.5110    -1.3630 ca         1 DXQ       0.438900
      3 N3           0.2260    -1.4950    -1.1210 nb         1 DXQ      -0.289000
      4 C4           0.7950    -0.3220    -0.7870 ca         1 DXQ       0.118000
      5 C5           0.0150     0.8520    -0.6930 ca         1 DXQ      -0.220000
      6 C6          -1.3650     0.7270    -0.9670 ca         1 DXQ       0.437900
      7 CAA          1.9370     4.5660     0.4130 c3         1 DXQ       0.145900
      8 CAB          9.6970    -1.6030     0.9520 c3         1 DXQ       0.149600
      9 CAC          9.4860     0.6460    -0.0040 c3         1 DXQ       0.149600
     10 CAF          2.1720    -0.2600    -0.5250 ca         1 DXQ      -0.208000
     11 CAG          0.6230     2.0790    -0.3320 ca         1 DXQ      -0.130000
     12 CAH          6.4370     0.3720     0.3740 c3         1 DXQ      -0.084400
     13 CAI         -1.1800    -4.5720    -0.0250 c3         1 DXQ      -0.105400
     14 CAK         -4.3580     3.0810    -0.9330 c6         1 DXQ      -0.093900
     15 CAL         -4.0270     1.2170     0.7410 c6         1 DXQ      -0.093900
     16 CAM          7.4700    -0.7760     0.3220 c3         1 DXQ       0.167800
     17 CAN         -2.6430    -4.7920     0.4350 c3         1 DXQ       0.178800
     18 CAO         -1.0010    -4.0430    -1.4620 c3         1 DXQ       0.231800
     19 CAP         -5.8790     3.0050    -0.6690 c6         1 DXQ       0.168300
     20 CAQ         -5.5550     1.1860     0.9630 c6         1 DXQ       0.168300
     21 CAR         -4.0070    -2.9140    -0.5650 c3         1 DXQ       0.150800
     22 CAS         -3.1630    -2.8900    -1.8790 c3         1 DXQ       0.232800
     23 NAV         -2.2410     1.8100    -0.8810 nu         1 DXQ      -0.925100
     24 CAY          2.0110     2.1350    -0.0690 ca         1 DXQ       0.083100
     25 CAZ          2.7880     0.9580    -0.1670 ca         1 DXQ       0.171100
     26 CBE         -3.7010     1.7060    -0.6900 c6         1 DXQ       0.234500
     27 NBF          8.8290    -0.4140     0.7980 n3         1 DXQ      -0.711600
     28 NBG         -3.4060    -3.5360     0.6610 n3         1 DXQ      -0.731600
     29 NBH         -6.1690     2.5170     0.7070 n3         1 DXQ      -0.716600
     30 NBI         -1.6930    -2.7570    -1.7040 nh         1 DXQ      -0.750300
     31 HAA          2.6310     5.3650     0.7020 h1         1 DXQ       0.037367
     32 HAAA         1.4700     4.8490    -0.5380 h1         1 DXQ       0.037367
     33 HAAB         1.1590     4.4980     1.1840 h1         1 DXQ       0.037367
     34 HAB         10.6670    -1.3230     1.3850 h1         1 DXQ       0.030700
     35 HABA         9.2320    -2.3410     1.6200 h1         1 DXQ       0.030700
     36 HABB         9.8790    -2.0850    -0.0180 h1         1 DXQ       0.030700
     37 HAC          9.5930     0.3350    -1.0520 h1         1 DXQ       0.030700
     38 HACA         8.9130     1.5810     0.0240 h1         1 DXQ       0.030700
     39 HACB        10.4880     0.8650     0.3910 h1         1 DXQ       0.030700
     40 HAD         -3.9090    -3.9730     2.6870 h1         1 DXQ       0.027033
     41 HADA        -4.8660    -2.6720     1.9510 h1         1 DXQ       0.027033
     42 HADB        -5.1810    -4.3670     1.5050 h1         1 DXQ       0.027033
     43 HAE         -8.1660     1.8510     0.3620 h1         1 DXQ       0.030700
     44 HAEA        -7.7910     2.2380     2.0590 h1         1 DXQ       0.030700
     45 HAEB        -8.0260     3.5480     0.8830 h1         1 DXQ       0.030700
     46 HAF          2.7500    -1.1760    -0.6050 ha         1 DXQ       0.136000
     47 HAG          0.0210     2.9780    -0.2580 ha         1 DXQ       0.108000
     48 HAH          6.7250     1.1650    -0.3260 hc         1 DXQ       0.064200
     49 HAHA         6.4320     0.8050     1.3810 hc         1 DXQ       0.064200
     50 HAI         -0.6870    -3.8860     0.6730 hc         1 DXQ       0.055200
     51 HAIA        -0.6480    -5.5270     0.0510 hc         1 DXQ       0.055200
     52 HAJ          5.0130    -0.5270    -0.9910 h1         1 DXQ       0.036700
     53 HAJA         4.7020    -0.8770     0.7320 h1         1 DXQ       0.036700
     54 HAK         -4.1790     3.4080    -1.9660 hc         1 DXQ       0.053700
     55 HAKA        -3.9120     3.8400    -0.2760 hc         1 DXQ       0.053700
     56 HAL         -3.5620     1.8800     1.4830 hc         1 DXQ       0.053700
     57 HALA        -3.6130     0.2150     0.9080 hc         1 DXQ       0.053700
     58 HAM          7.0810    -1.5950     0.9420 h1         1 DXQ       0.029200
     59 HAMA         7.5230    -1.1540    -0.7090 h1         1 DXQ       0.029200
     60 HAN         -3.1650    -5.4390    -0.2830 h1         1 DXQ       0.026700
     61 HANA        -2.5870    -5.3540     1.3780 h1         1 DXQ       0.026700
     62 HAO          0.0720    -3.9590    -1.6830 h1         1 DXQ       0.056200
     63 HAOA        -1.3830    -4.8020    -2.1590 h1         1 DXQ       0.056200
     64 HAP         -6.3130     4.0050    -0.8180 h1         1 DXQ       0.032700
     65 HAPA        -6.3400     2.3380    -1.4140 h1         1 DXQ       0.032700
     66 HAQ         -5.9990     0.4270     0.3010 h1         1 DXQ       0.032700
     67 HAQA        -5.7530     0.8670     1.9970 h1         1 DXQ       0.032700
     68 HAR         -4.2650    -1.8740    -0.3270 h1         1 DXQ       0.032700
     69 HARA        -4.9550    -3.4160    -0.8050 h1         1 DXQ       0.032700
     70 HAS         -3.3710    -3.8270    -2.4130 h1         1 DXQ       0.052200
     71 HASA        -3.5470    -2.0960    -2.5330 h1         1 DXQ       0.052200
     72 HNAV        -1.7980     2.6910    -0.6340 hn         1 DXQ       0.487000
     73 HBE         -4.1330     0.9960    -1.4140 h1         1 DXQ       0.082700
     74 OAW          2.6420     3.3180     0.2860 os         1 DXQ      -0.320100
     75 OAX          4.1460     1.0390     0.0950 os         1 DXQ      -0.325100
     76 CAD         -4.3930    -3.6440     1.7580 c3         1 DXQ       0.164100
     77 CAE         -7.6140     2.5380     1.0180 c3         1 DXQ       0.152100
     78 CAJ          5.0170    -0.1020     0.0210 c3         1 DXQ       0.160600
@<TRIPOS>BOND
     1     1     2 ar  
     2     1     6 ar  
     3     2     3 ar  
     4     2    30 1   
     5     3     4 ar  
     6     4     5 ar  
     7     4    10 ar  
     8     5     6 ar  
     9     5    11 ar  
    10     6    23 1   
    11     7    31 1   
    12     7    32 1   
    13     7    33 1   
    14     7    74 1   
    15     8    27 1   
    16     8    34 1   
    17     8    35 1   
    18     8    36 1   
    19     9    27 1   
    20     9    37 1   
    21     9    38 1   
    22     9    39 1   
    23    10    25 ar  
    24    10    46 1   
    25    11    24 ar  
    26    11    47 1   
    27    12    16 1   
    28    12    48 1   
    29    12    49 1   
    30    12    78 1   
    31    13    17 1   
    32    13    18 1   
    33    13    50 1   
    34    13    51 1   
    35    14    19 1   
    36    14    26 1   
    37    14    54 1   
    38    14    55 1   
    39    15    20 1   
    40    15    26 1   
    41    15    56 1   
    42    15    57 1   
    43    16    27 1   
    44    16    58 1   
    45    16    59 1   
    46    17    28 1   
    47    17    60 1   
    48    17    61 1   
    49    18    30 1   
    50    18    62 1   
    51    18    63 1   
    52    19    29 1   
    53    19    64 1   
    54    19    65 1   
    55    20    29 1   
    56    20    66 1   
    57    20    67 1   
    58    21    22 1   
    59    21    28 1   
    60    21    68 1   
    61    21    69 1   
    62    22    30 1   
    63    22    70 1   
    64    22    71 1   
    65    23    26 1   
    66    23    72 1   
    67    24    25 ar  
    68    24    74 1   
    69    25    75 1   
    70    26    73 1   
    71    28    76 1   
    72    29    77 1   
    73    40    76 1   
    74    41    76 1   
    75    42    76 1   
    76    43    77 1   
    77    44    77 1   
    78    45    77 1   
    79    52    78 1   
    80    53    78 1   
    81    75    78 1   
@<TRIPOS>SUBSTRUCTURE
     1 DXQ         1 TEMP              0 ****  ****    0 ROOT
