@<TRIPOS>MOLECULE
DXR
   40    42     1     0     0
SMALL
abcg2


@<TRIPOS>ATOM
      1 N1           3.9360    -0.0880    -1.1000 nb         1 DXR      -0.237000
      2 C2           4.0640     1.1450    -1.5400 ca         1 DXR       0.194900
      3 N3           3.3040     2.2060    -1.2750 nb         1 DXR      -0.314000
      4 C4           2.2580     2.0590    -0.4580 ca         1 DXR       0.460900
      5 C5           2.0060     0.7840     0.1010 ca         1 DXR      -0.387900
      6 C6           2.8910    -0.2320    -0.2740 ca         1 DXR       0.160500
      7 NAG          1.5080     3.1340    -0.2100 nv         1 DXR      -1.069900
      8 CAH          1.0890     0.1530     0.9810 cc         1 DXR       0.380900
      9 NAI          1.3970    -1.1130     1.1020 nd         1 DXR      -0.526100
     10 NAJ          2.4860    -1.3560     0.3530 na         1 DXR      -0.020100
     11 CAK          3.0690    -2.7090     0.2570 c3         1 DXR       0.135000
     12 CAL          4.5210    -2.6650     0.7340 c3         1 DXR      -0.101100
     13 CAM          2.2730    -3.6620     1.1410 c3         1 DXR      -0.101100
     14 CAN          2.9880    -3.1760    -1.1970 c3         1 DXR      -0.101100
     15 CAO         -0.0840     0.7250     1.7050 c3         1 DXR      -0.045400
     16 CAP         -1.1370     1.2920     0.7840 ca         1 DXR      -0.085300
     17 CAQ         -1.5080     0.6010    -0.3670 ca         1 DXR      -0.070000
     18 CAR         -2.4830     1.1280    -1.1980 ca         1 DXR      -0.014900
     19 CAS         -3.1070     2.3340    -0.9150 ca         1 DXR      -0.085000
     20 CAT         -2.7360     3.0160     0.2340 ca         1 DXR      -0.109000
     21 CAU         -1.7610     2.5010     1.0780 ca         1 DXR      -0.116000
     22 BRAV        -2.9770     0.1760    -2.7540 br         1 DXR      -0.094100
     23 H2           4.8990     1.3290    -2.2080 h5         1 DXR       0.044100
     24 HNAG         1.7100     3.9960    -0.6880 hn         1 DXR       0.502000
     25 HNAA         0.6570     3.0870     0.3210 hn         1 DXR       0.502000
     26 HAL          4.5800    -2.3450     1.7750 hc         1 DXR       0.050367
     27 HALA         4.9540    -3.6630     0.6660 hc         1 DXR       0.050367
     28 HALB         5.1260    -1.9930     0.1280 hc         1 DXR       0.050367
     29 HAM          1.2330    -3.7430     0.8240 hc         1 DXR       0.050367
     30 HAMA         2.7250    -4.6510     1.0690 hc         1 DXR       0.050367
     31 HAMB         2.2900    -3.3600     2.1870 hc         1 DXR       0.050367
     32 HAN          3.5780    -2.5420    -1.8580 hc         1 DXR       0.050367
     33 HANA         3.3670    -4.1940    -1.2820 hc         1 DXR       0.050367
     34 HANB         1.9540    -3.1720    -1.5470 hc         1 DXR       0.050367
     35 HAO         -0.5260    -0.0660     2.3170 hc         1 DXR       0.069700
     36 HAOA         0.2460     1.5020     2.4000 hc         1 DXR       0.069700
     37 HAQ         -1.0330    -0.3430    -0.6060 ha         1 DXR       0.141000
     38 HAS         -3.8640     2.7440    -1.5710 ha         1 DXR       0.131000
     39 HAT         -3.2100     3.9590     0.4690 ha         1 DXR       0.119000
     40 HAU         -1.4800     3.0460     1.9710 ha         1 DXR       0.115000
@<TRIPOS>BOND
     1     1     2 ar  
     2     1     6 ar  
     3     2     3 ar  
     4     2    23 1   
     5     3     4 ar  
     6     4     5 ar  
     7     4     7 1   
     8     5     6 ar  
     9     5     8 1   
    10     6    10 1   
    11     7    24 1   
    12     7    25 1   
    13     8     9 2   
    14     8    15 1   
    15     9    10 1   
    16    10    11 1   
    17    11    12 1   
    18    11    13 1   
    19    11    14 1   
    20    12    26 1   
    21    12    27 1   
    22    12    28 1   
    23    13    29 1   
    24    13    30 1   
    25    13    31 1   
    26    14    32 1   
    27    14    33 1   
    28    14    34 1   
    29    15    16 1   
    30    15    35 1   
    31    15    36 1   
    32    16    17 ar  
    33    16    21 ar  
    34    17    18 ar  
    35    17    37 1   
    36    18    19 ar  
    37    18    22 1   
    38    19    20 ar  
    39    19    38 1   
    40    20    21 ar  
    41    20    39 1   
    42    21    40 1   
@<TRIPOS>SUBSTRUCTURE
     1 DXR         1 TEMP              0 ****  ****    0 ROOT
