@<TRIPOS>MOLECULE
DXR
   40    42     1     0     0
SMALL
No Charge or Current Charge


@<TRIPOS>ATOM
      1 N1           3.9230    -0.0090    -1.1130 nb         1 DXR      -0.237000
      2 C2           4.0350     1.2690    -1.5430 ca         1 DXR       0.194900
      3 N3           3.2300     2.3070    -1.2120 nb         1 DXR      -0.314000
      4 C4           2.2260     2.0280    -0.3710 ca         1 DXR       0.460900
      5 C5           2.0470     0.7390     0.1190 ca         1 DXR      -0.387900
      6 C6           2.9020    -0.2560    -0.2660 ca         1 DXR       0.160500
      7 NAG          1.4200     3.0640    -0.0620 nv         1 DXR      -1.069900
      8 CAH          1.0940     0.1470     1.0230 cc         1 DXR       0.380900
      9 NAI          1.3310    -1.1580     1.1930 nd         1 DXR      -0.526100
     10 NAJ          2.4500    -1.3960     0.3900 na         1 DXR      -0.020100
     11 CAK          3.0800    -2.7540     0.2560 c3         1 DXR       0.135000
     12 CAL          4.5540    -2.7110     0.7420 c3         1 DXR      -0.101100
     13 CAM          2.3310    -3.8160     1.1140 c3         1 DXR      -0.101100
     14 CAN          3.0290    -3.2240    -1.2230 c3         1 DXR      -0.101100
     15 CAO         -0.0490     0.8420     1.7220 c3         1 DXR      -0.045400
     16 CAP         -1.1280     1.3770     0.7820 ca         1 DXR      -0.085300
     17 CAQ         -1.5340     0.6310    -0.3450 ca         1 DXR      -0.070000
     18 CAR         -2.5180     1.1380    -1.2100 ca         1 DXR      -0.014900
     19 CAS         -3.1090     2.3860    -0.9570 ca         1 DXR      -0.085000
     20 CAT         -2.7160     3.1290     0.1690 ca         1 DXR      -0.109000
     21 CAU         -1.7310     2.6250     1.0360 ca         1 DXR      -0.116000
     22 BrAV        -3.0530     0.1220    -2.7390 br         1 DXR      -0.094100
     23 H2           4.8550     1.4850    -2.2260 h5         1 DXR       0.044100
     24 HNAG         1.5230     3.9040    -0.6250 hn         1 DXR       0.502000
     25 HNAA         0.4740     2.8480     0.2350 hn         1 DXR       0.502000
     26 HAL          4.6110    -2.3460     1.7750 hc         1 DXR       0.050367
     27 HALA         5.0060    -3.7100     0.7100 hc         1 DXR       0.050367
     28 HALB         5.1680    -2.0540     0.1170 hc         1 DXR       0.050367
     29 HAM          1.2840    -3.9080     0.8020 hc         1 DXR       0.050367
     30 HAMA         2.7960    -4.8040     1.0120 hc         1 DXR       0.050367
     31 HAMB         2.3500    -3.5490     2.1780 hc         1 DXR       0.050367
     32 HAN          3.6220    -2.5740    -1.8760 hc         1 DXR       0.050367
     33 HANA         3.4270    -4.2410    -1.3240 hc         1 DXR       0.050367
     34 HANB         1.9970    -3.2260    -1.5930 hc         1 DXR       0.050367
     35 HAO         -0.5120     0.1490     2.4350 hc         1 DXR       0.069700
     36 HAOA         0.3640     1.6530     2.3320 hc         1 DXR       0.069700
     37 HAQ         -1.0900    -0.3400    -0.5530 ha         1 DXR       0.141000
     38 HAS         -3.8710     2.7760    -1.6290 ha         1 DXR       0.131000
     39 HAT         -3.1760     4.0940     0.3700 ha         1 DXR       0.119000
     40 HAU         -1.4390     3.2080     1.9080 ha         1 DXR       0.115000
@<TRIPOS>BOND
     1     1     2 ar  
     2     1     6 ar  
     3     2     3 ar  
     4     2    23 1   
     5     3     4 ar  
     6     4     5 ar  
     7     4     7 1   
     8     5     6 ar  
     9     5     8 1   
    10     6    10 1   
    11     7    24 1   
    12     7    25 1   
    13     8     9 2   
    14     8    15 1   
    15     9    10 1   
    16    10    11 1   
    17    11    12 1   
    18    11    13 1   
    19    11    14 1   
    20    12    26 1   
    21    12    27 1   
    22    12    28 1   
    23    13    29 1   
    24    13    30 1   
    25    13    31 1   
    26    14    32 1   
    27    14    33 1   
    28    14    34 1   
    29    15    16 1   
    30    15    35 1   
    31    15    36 1   
    32    16    17 ar  
    33    16    21 ar  
    34    17    18 ar  
    35    17    37 1   
    36    18    19 ar  
    37    18    22 1   
    38    19    20 ar  
    39    19    38 1   
    40    20    21 ar  
    41    20    39 1   
    42    21    40 1   
@<TRIPOS>SUBSTRUCTURE
     1 DXR         1 TEMP              0 ****  ****    0 ROOT
