@<TRIPOS>MOLECULE
DXS
   77    81     1     0     0
SMALL
No Charge or Current Charge


@<TRIPOS>ATOM
      1 CAA         -3.5840    -0.7910     1.8830 cc         1 DXS      -0.142400
      2 CAB         -2.4350    -0.4470     2.8060 c3         1 DXS      -0.084200
      3 CAC         -1.1560    -0.0570     2.0530 c          1 DXS       0.601100
      4 CAE         -4.4500     0.0630     1.2070 cd         1 DXS       0.038400
      5 CAG         -5.1370    -2.0080     0.7090 ca         1 DXS      -0.112000
      6 CAH         -4.0510    -2.1150     1.5470 ca         1 DXS      -0.046800
      7 CAI         -6.4080    -0.0960    -0.4320 c          1 DXS       0.637700
      8 CAJ         -5.7870    -3.1540     0.2190 ca         1 DXS      -0.062000
      9 CAK         -5.3150    -4.4210     0.6220 ca         1 DXS      -0.179000
     10 CAL         -4.2000    -4.5280     1.4940 ca         1 DXS       0.125100
     11 CAM         -3.5610    -3.3630     1.9590 ca         1 DXS      -0.122000
     12 CAP          1.0980    -0.9000     1.2920 c3         1 DXS       0.101000
     13 CAQ          2.0820     0.0160     2.0570 c3         1 DXS       0.171800
     14 CAR         -6.1310     1.1870    -1.1870 ca         1 DXS      -0.162600
     15 CAS         -7.1980     2.0610    -1.4950 ca         1 DXS      -0.055000
     16 CAT         -6.9630     3.2430    -2.2200 ca         1 DXS      -0.114000
     17 CAU         -5.6670     3.5530    -2.6580 ca         1 DXS       0.142000
     18 CAV         -4.6050     2.6780    -2.3840 ca         1 DXS      -0.114000
     19 CAW         -4.8340     1.4950    -1.6600 ca         1 DXS      -0.055000
     20 CBA          6.0380     0.3520     1.2460 ca         1 DXS      -0.307500
     21 CBB          6.2850     0.3680    -0.1620 ca         1 DXS       0.060000
     22 CBC          7.4940    -0.1900    -0.6680 ca         1 DXS      -0.068000
     23 CBD          8.4190    -0.7730     0.2270 ca         1 DXS      -0.026000
     24 CBE          8.1650    -0.7950     1.6020 ca         1 DXS      -0.154000
     25 CBF          6.9880    -0.2350     2.1100 ca         1 DXS       0.015000
     26 CBG          5.3590     0.9110    -1.0860 ca         1 DXS      -0.158000
     27 CBH          5.6230     0.9120    -2.4620 ca         1 DXS      -0.056000
     28 CBI          6.8190     0.3740    -2.9450 ca         1 DXS      -0.174000
     29 CBJ          7.7620    -0.1750    -2.0640 ca         1 DXS       0.294000
     30 CBN         -4.4420     1.5660     1.4100 c3         1 DXS      -0.043900
     31 CBP         -4.2800    -6.9960     1.4970 c3         1 DXS       0.150900
     32 CBQ          8.9230    -1.7360    -3.6550 c3         1 DXS       0.171100
     33 CBR         10.2260     0.0650    -2.4670 c3         1 DXS       0.171100
     34 NAD         -0.2000    -1.0460     1.9660 ns         1 DXS      -0.507900
     35 NAF         -5.3980    -0.6310     0.4160 n          1 DXS      -0.100600
     36 NAY          3.3840     0.0770     1.3650 n7         1 DXS      -0.863300
     37 NBK          8.9630    -0.6900    -2.6120 nh         1 DXS      -0.782400
     38 OAN         -0.9980     1.0450     1.5490 o          1 DXS      -0.596100
     39 OAO         -7.4550    -0.7010    -0.6350 o          1 DXS      -0.528100
     40 OBL          4.5750     0.7920     3.4580 o          1 DXS      -0.531000
     41 OBM          4.3200     2.3990     1.4720 o          1 DXS      -0.531000
     42 OBO         -3.7020    -5.7460     1.9130 os         1 DXS      -0.348100
     43 SAZ          4.5630     1.0610     2.0180 sy         1 DXS       1.147600
     44 ClAX        -5.3760     5.0310    -3.5650 cl         1 DXS      -0.188000
     45 H1          -2.7230     0.3900     3.4510 hc         1 DXS       0.065700
     46 H2          -2.2260    -1.3140     3.4420 hc         1 DXS       0.065700
     47 H3          -6.6330    -3.0820    -0.4600 ha         1 DXS       0.138000
     48 H4          -5.8210    -5.3040     0.2440 ha         1 DXS       0.119000
     49 H5          -2.7060    -3.4410     2.6240 ha         1 DXS       0.120000
     50 H6           0.9330    -0.4930     0.2860 h1         1 DXS       0.065700
     51 H7           1.5440    -1.8970     1.1820 h1         1 DXS       0.065700
     52 H8           1.6430     1.0210     2.1280 h1         1 DXS       0.059700
     53 H9           2.1980    -0.3680     3.0800 h1         1 DXS       0.059700
     54 H10         -8.2090     1.8300    -1.1640 ha         1 DXS       0.135500
     55 H11         -7.7860     3.9170    -2.4430 ha         1 DXS       0.138000
     56 H12         -3.6040     2.9140    -2.7390 ha         1 DXS       0.138000
     57 H13         -4.0020     0.8170    -1.4790 ha         1 DXS       0.135500
     58 H14          9.3400    -1.2230    -0.1350 ha         1 DXS       0.131000
     59 H15          8.8860    -1.2470     2.2790 ha         1 DXS       0.122000
     60 H16          6.8280    -0.2630     3.1870 ha         1 DXS       0.146000
     61 H17          4.4120     1.3320    -0.7690 ha         1 DXS       0.124000
     62 H18          4.8980     1.3340    -3.1540 ha         1 DXS       0.117000
     63 H19          7.0200     0.3910    -4.0130 ha         1 DXS       0.119000
     64 H20         -3.6930     2.0510     0.7740 hc         1 DXS       0.059700
     65 H21         -5.4180     2.0190     1.2050 hc         1 DXS       0.059700
     66 H22         -4.2040     1.8250     2.4470 hc         1 DXS       0.059700
     67 H23         -3.7330    -7.8350     1.9450 h1         1 DXS       0.040033
     68 H24         -5.3280    -7.0660     1.8140 h1         1 DXS       0.040033
     69 H25         -4.2330    -7.1040     0.4060 h1         1 DXS       0.040033
     70 H26          8.9380    -1.2840    -4.6560 h1         1 DXS       0.038033
     71 H27          9.7870    -2.4070    -3.5580 h1         1 DXS       0.038033
     72 H28          8.0130    -2.3420    -3.5570 h1         1 DXS       0.038033
     73 H29         10.1260     0.8450    -1.7000 h1         1 DXS       0.038033
     74 H30         11.0410    -0.6060    -2.1640 h1         1 DXS       0.038033
     75 H31         10.4980     0.5470    -3.4160 h1         1 DXS       0.038033
     76 H32         -0.4230    -1.9360     2.3970 hn         1 DXS       0.314500
     77 H33          3.8420    -0.8330     1.3850 hn         1 DXS       0.478000
@<TRIPOS>BOND
     1     1     2 1   
     2     1     4 2   
     3     1     6 1   
     4     2     3 1   
     5     2    45 1   
     6     2    46 1   
     7     3    34 1   
     8     3    38 2   
     9     4    30 1   
    10     4    35 1   
    11     5     6 ar  
    12     5     8 ar  
    13     5    35 1   
    14     6    11 ar  
    15     7    14 1   
    16     7    35 1   
    17     7    39 2   
    18     8     9 ar  
    19     8    47 1   
    20     9    10 ar  
    21     9    48 1   
    22    10    11 ar  
    23    10    42 1   
    24    11    49 1   
    25    12    13 1   
    26    12    34 1   
    27    12    50 1   
    28    12    51 1   
    29    13    36 1   
    30    13    52 1   
    31    13    53 1   
    32    14    15 ar  
    33    14    19 ar  
    34    15    16 ar  
    35    15    54 1   
    36    16    17 ar  
    37    16    55 1   
    38    17    18 ar  
    39    17    44 1   
    40    18    19 ar  
    41    18    56 1   
    42    19    57 1   
    43    20    21 ar  
    44    20    25 ar  
    45    20    43 1   
    46    21    22 ar  
    47    21    26 ar  
    48    22    23 ar  
    49    22    29 ar  
    50    23    24 ar  
    51    23    58 1   
    52    24    25 ar  
    53    24    59 1   
    54    25    60 1   
    55    26    27 ar  
    56    26    61 1   
    57    27    28 ar  
    58    27    62 1   
    59    28    29 ar  
    60    28    63 1   
    61    29    37 1   
    62    30    64 1   
    63    30    65 1   
    64    30    66 1   
    65    31    42 1   
    66    31    67 1   
    67    31    68 1   
    68    31    69 1   
    69    32    37 1   
    70    32    70 1   
    71    32    71 1   
    72    32    72 1   
    73    33    37 1   
    74    33    73 1   
    75    33    74 1   
    76    33    75 1   
    77    34    76 1   
    78    36    43 1   
    79    36    77 1   
    80    40    43 2   
    81    41    43 2   
@<TRIPOS>SUBSTRUCTURE
     1 DXS         1 TEMP              0 ****  ****    0 ROOT
