@<TRIPOS>MOLECULE
DXS
   77    81     1     0     0
SMALL
abcg2


@<TRIPOS>ATOM
      1 CAA         -2.8230    -1.1190     1.2830 cc         1 DXS      -0.142400
      2 CAB         -1.4360    -0.8960     1.7890 c3         1 DXS      -0.084200
      3 CAC         -0.7140     0.0830     0.8790 c          1 DXS       0.601100
      4 CAE         -3.9120    -0.3450     1.5330 cd         1 DXS       0.038400
      5 CAG         -4.6110    -2.0600     0.2120 ca         1 DXS      -0.112000
      6 CAH         -3.2330    -2.2000     0.4300 ca         1 DXS      -0.046800
      7 CAI         -6.3290    -0.4320     0.8680 c          1 DXS       0.637700
      8 CAJ         -5.3030    -2.9640    -0.5780 ca         1 DXS      -0.062000
      9 CAK         -4.6010    -4.0210    -1.1390 ca         1 DXS      -0.179000
     10 CAL         -3.2250    -4.1760    -0.9200 ca         1 DXS       0.125100
     11 CAM         -2.5350    -3.2590    -0.1370 ca         1 DXS      -0.122000
     12 CAP          0.9110     0.3040    -0.9410 c3         1 DXS       0.101000
     13 CAQ          2.2130     0.8180    -0.3360 c3         1 DXS       0.171800
     14 CAR         -6.5460     1.0340     0.8930 ca         1 DXS      -0.162600
     15 CAS         -7.6290     1.5460     1.6020 ca         1 DXS      -0.055000
     16 CAT         -7.9050     2.9010     1.5760 ca         1 DXS      -0.114000
     17 CAU         -7.1090     3.7370     0.8050 ca         1 DXS       0.142000
     18 CAV         -6.0440     3.2410     0.0670 ca         1 DXS      -0.114000
     19 CAW         -5.7610     1.8870     0.1220 ca         1 DXS      -0.055000
     20 CBA          5.3490     1.4820    -0.0270 ca         1 DXS      -0.307500
     21 CBB          6.0750     0.4640    -0.7150 ca         1 DXS       0.060000
     22 CBC          6.9600    -0.3410     0.0590 ca         1 DXS      -0.068000
     23 CBD          7.0260    -0.1510     1.4580 ca         1 DXS      -0.026000
     24 CBE          6.3040     0.8290     2.0790 ca         1 DXS      -0.154000
     25 CBF          5.4650     1.6640     1.3260 ca         1 DXS       0.015000
     26 CBG          5.9380     0.1820    -2.0950 ca         1 DXS      -0.158000
     27 CBH          6.6270    -0.8580    -2.6540 ca         1 DXS      -0.056000
     28 CBI          7.5290    -1.6310    -1.9060 ca         1 DXS      -0.174000
     29 CBJ          7.7360    -1.3680    -0.5720 ca         1 DXS       0.294000
     30 CBN         -3.9870     0.8110     2.4670 c3         1 DXS      -0.043900
     31 CBP         -3.1490    -6.1870    -2.1870 c3         1 DXS       0.150900
     32 CBQ          8.9850    -3.4190    -0.2520 c3         1 DXS       0.171100
     33 CBR          9.8410    -1.3490     0.6060 c3         1 DXS       0.171100
     34 NAD          0.1540    -0.4680     0.0120 ns         1 DXS      -0.507900
     35 NAF         -5.0190    -0.8910     0.8640 n          1 DXS      -0.100600
     36 NAY          2.9380     1.5770    -1.3490 n7         1 DXS      -0.863300
     37 NBK          8.6500    -2.0880     0.2070 nh         1 DXS      -0.782400
     38 OAN         -0.9560     1.2790     0.9120 o          1 DXS      -0.596100
     39 OAO         -7.2590    -1.2030     0.7830 o          1 DXS      -0.528100
     40 OBL          3.6590     3.4710     0.1020 o          1 DXS      -0.531000
     41 OBM          4.7960     3.0570    -2.0890 o          1 DXS      -0.531000
     42 OBO         -2.4930    -5.1880    -1.4340 os         1 DXS      -0.348100
     43 SAZ          4.1910     2.5350    -0.8750 sy         1 DXS       1.147600
     44 CLAX        -7.4560     5.4290     0.7590 cl         1 DXS      -0.188000
     45 H1          -1.4540    -0.4650     2.7920 hc         1 DXS       0.065700
     46 H2          -0.9050    -1.8470     1.8660 hc         1 DXS       0.065700
     47 H3          -6.3630    -2.8800    -0.7620 ha         1 DXS       0.138000
     48 H4          -5.1490    -4.7270    -1.7470 ha         1 DXS       0.119000
     49 H5          -1.4710    -3.3860     0.0250 ha         1 DXS       0.120000
     50 H6           0.3110     1.1410    -1.2950 h1         1 DXS       0.065700
     51 H7           1.1230    -0.3350    -1.8000 h1         1 DXS       0.065700
     52 H8           1.9860     1.4770     0.5010 h1         1 DXS       0.059700
     53 H9           2.8020    -0.0230     0.0460 h1         1 DXS       0.059700
     54 H10         -8.2530     0.8890     2.1940 ha         1 DXS       0.135500
     55 H11         -8.7340     3.3020     2.1430 ha         1 DXS       0.138000
     56 H12         -5.4410     3.9000    -0.5430 ha         1 DXS       0.138000
     57 H13         -4.9310     1.5000    -0.4560 ha         1 DXS       0.135500
     58 H14          7.6410    -0.8140     2.0500 ha         1 DXS       0.131000
     59 H15          6.3610     0.9580     3.1510 ha         1 DXS       0.122000
     60 H16          4.9020     2.4360     1.8290 ha         1 DXS       0.146000
     61 H17          5.3110     0.7790    -2.7370 ha         1 DXS       0.124000
     62 H18          6.5010    -1.0740    -3.7070 ha         1 DXS       0.117000
     63 H19          8.0800    -2.4160    -2.4050 ha         1 DXS       0.119000
     64 H20         -3.9240     1.7720     1.9600 hc         1 DXS       0.059700
     65 H21         -4.9010     0.8030     3.0590 hc         1 DXS       0.059700
     66 H22         -3.1460     0.7580     3.1560 hc         1 DXS       0.059700
     67 H23         -2.3870    -6.9090    -2.4720 h1         1 DXS       0.040033
     68 H24         -3.9180    -6.7000    -1.6030 h1         1 DXS       0.040033
     69 H25         -3.6070    -5.7860    -3.0950 h1         1 DXS       0.040033
     70 H26          9.6400    -3.4290    -1.1330 h1         1 DXS       0.038033
     71 H27          9.5050    -3.9450     0.5490 h1         1 DXS       0.038033
     72 H28          8.0810    -3.9780    -0.4900 h1         1 DXS       0.038033
     73 H29          9.5930    -0.3390     0.9240 h1         1 DXS       0.038033
     74 H30         10.3230    -1.8550     1.4430 h1         1 DXS       0.038033
     75 H31         10.5680    -1.2730    -0.2130 h1         1 DXS       0.038033
     76 H32          0.3540    -1.4520     0.0780 hn         1 DXS       0.314500
     77 H33          3.1530     1.0450    -2.1860 hn         1 DXS       0.478000
@<TRIPOS>BOND
     1     1     2 1   
     2     1     4 2   
     3     1     6 1   
     4     2     3 1   
     5     2    45 1   
     6     2    46 1   
     7     3    34 1   
     8     3    38 2   
     9     4    30 1   
    10     4    35 1   
    11     5     6 ar  
    12     5     8 ar  
    13     5    35 1   
    14     6    11 ar  
    15     7    14 1   
    16     7    35 1   
    17     7    39 2   
    18     8     9 ar  
    19     8    47 1   
    20     9    10 ar  
    21     9    48 1   
    22    10    11 ar  
    23    10    42 1   
    24    11    49 1   
    25    12    13 1   
    26    12    34 1   
    27    12    50 1   
    28    12    51 1   
    29    13    36 1   
    30    13    52 1   
    31    13    53 1   
    32    14    15 ar  
    33    14    19 ar  
    34    15    16 ar  
    35    15    54 1   
    36    16    17 ar  
    37    16    55 1   
    38    17    18 ar  
    39    17    44 1   
    40    18    19 ar  
    41    18    56 1   
    42    19    57 1   
    43    20    21 ar  
    44    20    25 ar  
    45    20    43 1   
    46    21    22 ar  
    47    21    26 ar  
    48    22    23 ar  
    49    22    29 ar  
    50    23    24 ar  
    51    23    58 1   
    52    24    25 ar  
    53    24    59 1   
    54    25    60 1   
    55    26    27 ar  
    56    26    61 1   
    57    27    28 ar  
    58    27    62 1   
    59    28    29 ar  
    60    28    63 1   
    61    29    37 1   
    62    30    64 1   
    63    30    65 1   
    64    30    66 1   
    65    31    42 1   
    66    31    67 1   
    67    31    68 1   
    68    31    69 1   
    69    32    37 1   
    70    32    70 1   
    71    32    71 1   
    72    32    72 1   
    73    33    37 1   
    74    33    73 1   
    75    33    74 1   
    76    33    75 1   
    77    34    76 1   
    78    36    43 1   
    79    36    77 1   
    80    40    43 2   
    81    41    43 2   
@<TRIPOS>SUBSTRUCTURE
     1 DXS         1 TEMP              0 ****  ****    0 ROOT
