@<TRIPOS>MOLECULE
DXT
   56    59     1     0     0
SMALL
No Charge or Current Charge


@<TRIPOS>ATOM
      1 C1           6.9650    -4.4990     4.3840 c          1 DXT       0.577300
      2 O1           6.6150    -5.6160     4.7480 o          1 DXT      -0.493100
      3 C2           7.2320    -3.3960     5.3720 ce         1 DXT      -0.423400
      4 O21          6.0660    -4.4500     7.1890 o          1 DXT      -0.549100
      5 C21          6.5590    -3.4500     6.7060 c          1 DXT       0.616300
      6 N21          6.4620    -2.2930     7.3920 nt         1 DXT      -0.615000
      7 C3           8.1400    -2.4480     5.0140 c2         1 DXT       0.216900
      8 O3           8.5980    -1.4740     5.8240 oh         1 DXT      -0.521100
      9 C4           8.7570    -2.3830     3.5990 c6         1 DXT       0.246700
     10 N4           9.9980    -3.2310     3.4370 n3         1 DXT      -0.745600
     11 C41         10.9910    -3.0500     4.5260 c3         1 DXT       0.173600
     12 C42         10.6460    -3.0960     2.1070 c3         1 DXT       0.173600
     13 C4A          7.6040    -2.7170     2.5820 c6         1 DXT      -0.082700
     14 C5           6.4760    -1.6360     2.6880 c6         1 DXT       0.171300
     15 O5           7.0570    -0.3650     2.3560 oh         1 DXT      -0.656000
     16 C5A          5.2360    -1.9100     1.7690 c6         1 DXT      -0.003500
     17 C6           3.9440    -1.1210     2.1950 c6         1 DXT      -0.018400
     18 C61          4.1670     0.3840     2.5540 c3         1 DXT      -0.084100
     19 C6A          2.8210    -1.3400     1.1510 ca         1 DXT       0.021700
     20 C7           1.9400    -0.3070     0.7460 ca         1 DXT      -0.175000
     21 C8           0.9030    -0.5560    -0.1640 ca         1 DXT      -0.032000
     22 C9           0.7220    -1.8440    -0.6770 ca         1 DXT      -0.181000
     23 C10          1.5810    -2.8770    -0.2910 ca         1 DXT       0.230100
     24 O10          1.3750    -4.1190    -0.8040 oh         1 DXT      -0.542100
     25 C6B          2.6430    -2.6350     0.6090 ca         1 DXT      -0.287600
     26 C11          3.5860    -3.7360     0.9950 c          1 DXT       0.634900
     27 O11          3.2890    -4.9070     0.7630 o          1 DXT      -0.653100
     28 C5B          4.8770    -3.4080     1.6870 ce         1 DXT      -0.377400
     29 C12          5.6880    -4.3810     2.1710 c2         1 DXT       0.221900
     30 O12          5.3810    -5.6830     2.0290 oh         1 DXT      -0.530100
     31 C4B          7.0610    -4.1630     2.8400 c6         1 DXT       0.133200
     32 O13          7.9640    -5.1130     2.2140 oh         1 DXT      -0.622000
     33 H10          2.0250    -4.7050    -0.3350 ho         1 DXT       0.516000
     34 H12          4.5150    -5.6790     1.5360 ho         1 DXT       0.539000
     35 H13          7.4290    -5.9340     2.1140 ho         1 DXT       0.472000
     36 H211         5.9790    -2.3010     8.2800 hn         1 DXT       0.304000
     37 H212         6.6440    -1.4130     6.9310 hn         1 DXT       0.304000
     38 HO3          8.4450    -1.7630     6.7480 ho         1 DXT       0.499000
     39 H4           9.0570    -1.3370     3.4320 h1         1 DXT       0.083700
     40 H411        10.5720    -3.3370     5.4990 h1         1 DXT       0.034867
     41 H412        11.3250    -2.0050     4.5840 h1         1 DXT       0.034867
     42 H413        11.8730    -3.6820     4.3560 h1         1 DXT       0.034867
     43 H421        11.5520    -3.7150     2.0540 h1         1 DXT       0.034867
     44 H422        10.9340    -2.0540     1.9150 h1         1 DXT       0.034867
     45 H423         9.9860    -3.4290     1.2970 h1         1 DXT       0.034867
     46 H4A          7.9840    -2.6690     1.5550 hc         1 DXT       0.095700
     47 H5           6.1030    -1.6150     3.7230 h1         1 DXT       0.079700
     48 HO5          7.1290    -0.3220     1.3780 ho         1 DXT       0.447000
     49 H5A          5.5020    -1.5930     0.7500 hc         1 DXT       0.056700
     50 H6           3.5920    -1.5690     3.1350 hc         1 DXT       0.068700
     51 H7           2.0350     0.7060     1.1250 ha         1 DXT       0.121000
     52 H8           0.2350     0.2490    -0.4640 ha         1 DXT       0.116000
     53 H9          -0.0870    -2.0430    -1.3750 ha         1 DXT       0.135000
     54 H611         4.8850     0.5090     3.3710 hc         1 DXT       0.041700
     55 H612         4.5240     0.9580     1.6910 hc         1 DXT       0.041700
     56 H613         3.2460     0.8490     2.9210 hc         1 DXT       0.041700
@<TRIPOS>BOND
     1     1     2 2   
     2     1     3 1   
     3     1    31 1   
     4     3     5 1   
     5     3     7 2   
     6     4     5 2   
     7     5     6 1   
     8     6    36 1   
     9     6    37 1   
    10     7     8 1   
    11     7     9 1   
    12     8    38 1   
    13     9    10 1   
    14     9    13 1   
    15     9    39 1   
    16    10    11 1   
    17    10    12 1   
    18    11    40 1   
    19    11    41 1   
    20    11    42 1   
    21    12    43 1   
    22    12    44 1   
    23    12    45 1   
    24    13    14 1   
    25    13    31 1   
    26    13    46 1   
    27    14    15 1   
    28    14    16 1   
    29    14    47 1   
    30    15    48 1   
    31    16    17 1   
    32    16    28 1   
    33    16    49 1   
    34    17    18 1   
    35    17    19 1   
    36    17    50 1   
    37    18    54 1   
    38    18    55 1   
    39    18    56 1   
    40    19    20 ar  
    41    19    25 ar  
    42    20    21 ar  
    43    20    51 1   
    44    21    22 ar  
    45    21    52 1   
    46    22    23 ar  
    47    22    53 1   
    48    23    24 1   
    49    23    25 ar  
    50    24    33 1   
    51    25    26 1   
    52    26    27 2   
    53    26    28 1   
    54    28    29 2   
    55    29    30 1   
    56    29    31 1   
    57    30    34 1   
    58    31    32 1   
    59    32    35 1   
@<TRIPOS>SUBSTRUCTURE
     1 DXT         1 TEMP              0 ****  ****    0 ROOT
