@<TRIPOS>MOLECULE
DXT
   56    59     1     0     0
SMALL
abcg2


@<TRIPOS>ATOM
      1 C1           6.3850    -3.9190     4.6570 c          1 DXT       0.577300
      2 O1           5.3550    -4.4040     5.0780 o          1 DXT      -0.493100
      3 C2           7.3510    -3.2610     5.5210 ce         1 DXT      -0.423400
      4 O21          7.0840    -4.5920     7.4670 o          1 DXT      -0.549100
      5 C21          7.2080    -3.4810     6.9910 c          1 DXT       0.616300
      6 N21          7.3250    -2.3570     7.7440 nt         1 DXT      -0.615000
      7 C3           8.3700    -2.5220     5.0000 c2         1 DXT       0.216900
      8 O3           9.2800    -1.8920     5.7200 oh         1 DXT      -0.521100
      9 C4           8.5920    -2.3270     3.5290 c6         1 DXT       0.246700
     10 N4           9.8210    -2.9420     3.0350 n3         1 DXT      -0.745600
     11 C41         10.5110    -3.9110     3.8570 c3         1 DXT       0.173600
     12 C42         10.7360    -1.9940     2.4420 c3         1 DXT       0.173600
     13 C4A          7.3580    -2.7100     2.6920 c6         1 DXT      -0.082700
     14 C5           6.2990    -1.5930     2.6890 c6         1 DXT       0.171300
     15 O5           6.8970    -0.3640     2.3490 oh         1 DXT      -0.656000
     16 C5A          5.1290    -1.9130     1.7510 c6         1 DXT      -0.003500
     17 C6           3.8490    -1.1030     2.0410 c6         1 DXT      -0.018400
     18 C61          4.0510     0.3890     2.2690 c3         1 DXT      -0.084100
     19 C6A          2.8440    -1.4070     0.9460 ca         1 DXT       0.021700
     20 C7           2.0400    -0.4360     0.3790 ca         1 DXT      -0.175000
     21 C8           1.0960    -0.7810    -0.5890 ca         1 DXT      -0.032000
     22 C9           0.9170    -2.0870    -0.9900 ca         1 DXT      -0.181000
     23 C10          1.7030    -3.0900    -0.4220 ca         1 DXT       0.230100
     24 O10          1.4910    -4.3460    -0.8090 oh         1 DXT      -0.542100
     25 C6B          2.6930    -2.7450     0.5220 ca         1 DXT      -0.287600
     26 C11          3.5610    -3.7770     1.0690 c          1 DXT       0.634900
     27 O11          3.2740    -4.9910     0.9130 o          1 DXT      -0.653100
     28 C5B          4.7550    -3.3750     1.7670 ce         1 DXT      -0.377400
     29 C12          5.5040    -4.3380     2.3720 c2         1 DXT       0.221900
     30 O12          5.2170    -5.6170     2.3410 oh         1 DXT      -0.530100
     31 C4B          6.7480    -4.0190     3.1640 c6         1 DXT       0.133200
     32 O13          7.7070    -5.0320     3.0170 oh         1 DXT      -0.622000
     33 H10          2.0680    -4.9290    -0.2690 ho         1 DXT       0.516000
     34 H12          4.4040    -5.7220     1.7730 ho         1 DXT       0.539000
     35 H13          7.3350    -5.8760     3.3010 ho         1 DXT       0.472000
     36 H211         7.2030    -2.4440     8.7430 hn         1 DXT       0.304000
     37 H212         7.0370    -1.4710     7.3580 hn         1 DXT       0.304000
     38 HO3          9.1260    -1.9990     6.6750 ho         1 DXT       0.499000
     39 H4           8.7040    -1.2430     3.4220 h1         1 DXT       0.083700
     40 H411         9.8090    -4.5820     4.3470 h1         1 DXT       0.034867
     41 H412        11.1540    -3.4630     4.6270 h1         1 DXT       0.034867
     42 H413        11.1490    -4.5260     3.2200 h1         1 DXT       0.034867
     43 H421        11.4980    -2.5270     1.8700 h1         1 DXT       0.034867
     44 H422        11.2550    -1.3600     3.1760 h1         1 DXT       0.034867
     45 H423        10.2100    -1.3370     1.7470 h1         1 DXT       0.034867
     46 H4A          7.7070    -2.8490     1.6620 hc         1 DXT       0.095700
     47 H5           5.9090    -1.4530     3.7050 h1         1 DXT       0.079700
     48 HO5          7.1550    -0.3940     1.4210 ho         1 DXT       0.447000
     49 H5A          5.4630    -1.6650     0.7310 hc         1 DXT       0.056700
     50 H6           3.4330    -1.5120     2.9720 hc         1 DXT       0.068700
     51 H7           2.1250     0.6000     0.6740 ha         1 DXT       0.121000
     52 H8           0.4800    -0.0060    -1.0260 ha         1 DXT       0.116000
     53 H9           0.1680    -2.3460    -1.7270 ha         1 DXT       0.135000
     54 H611         4.7210     0.5690     3.1050 hc         1 DXT       0.041700
     55 H612         4.4610     0.8930     1.3930 hc         1 DXT       0.041700
     56 H613         3.1030     0.8640     2.5210 hc         1 DXT       0.041700
@<TRIPOS>BOND
     1     1     2 2   
     2     1     3 1   
     3     1    31 1   
     4     3     5 1   
     5     3     7 2   
     6     4     5 2   
     7     5     6 1   
     8     6    36 1   
     9     6    37 1   
    10     7     8 1   
    11     7     9 1   
    12     8    38 1   
    13     9    10 1   
    14     9    13 1   
    15     9    39 1   
    16    10    11 1   
    17    10    12 1   
    18    11    40 1   
    19    11    41 1   
    20    11    42 1   
    21    12    43 1   
    22    12    44 1   
    23    12    45 1   
    24    13    14 1   
    25    13    31 1   
    26    13    46 1   
    27    14    15 1   
    28    14    16 1   
    29    14    47 1   
    30    15    48 1   
    31    16    17 1   
    32    16    28 1   
    33    16    49 1   
    34    17    18 1   
    35    17    19 1   
    36    17    50 1   
    37    18    54 1   
    38    18    55 1   
    39    18    56 1   
    40    19    20 ar  
    41    19    25 ar  
    42    20    21 ar  
    43    20    51 1   
    44    21    22 ar  
    45    21    52 1   
    46    22    23 ar  
    47    22    53 1   
    48    23    24 1   
    49    23    25 ar  
    50    24    33 1   
    51    25    26 1   
    52    26    27 2   
    53    26    28 1   
    54    28    29 2   
    55    29    30 1   
    56    29    31 1   
    57    30    34 1   
    58    31    32 1   
    59    32    35 1   
@<TRIPOS>SUBSTRUCTURE
     1 DXT         1 TEMP              0 ****  ****    0 ROOT
