@<TRIPOS>MOLECULE
DXU
   55    57     1     0     0
SMALL
No Charge or Current Charge


@<TRIPOS>ATOM
      1 Cl1        -40.0720    19.4730   -41.9140 cl         1 DXU      -0.195000
      2 C29        -38.6720    19.2860   -42.9750 ca         1 DXU       0.140500
      3 C30        -38.7910    19.9110   -44.2300 ca         1 DXU      -0.097500
      4 C31        -37.7600    19.8330   -45.1730 ca         1 DXU      -0.089000
      5 C32        -36.6010    19.1160   -44.8630 ca         1 DXU      -0.097500
      6 C33        -36.4650    18.4870   -43.6160 ca         1 DXU       0.140500
      7 Cl2        -34.9670    17.5930   -43.3380 cl         1 DXU      -0.195000
      8 C28        -37.4880    18.5620   -42.6290 ca         1 DXU      -0.090300
      9 C26        -37.2350    17.8620   -41.2670 c5         1 DXU       0.174800
     10 N25        -38.3680    17.6200   -40.3530 n7         1 DXU      -0.575900
     11 O24        -37.7440    17.4340   -39.0370 os         1 DXU      -0.251300
     12 C23        -36.3930    17.9660   -39.0900 c5         1 DXU       0.175300
     13 C27        -36.0560    18.7150   -37.7850 c3         1 DXU      -0.093100
     14 C22        -36.3140    18.7670   -40.4130 c5         1 DXU      -0.167700
     15 C21        -36.8850    20.2020   -40.2800 c          1 DXU       0.614100
     16 O21        -37.9460    20.5460   -39.7820 o          1 DXU      -0.578100
     17 N2         -36.0100    21.0830   -40.8790 ns         1 DXU      -0.494900
     18 C2         -36.2610    22.5400   -41.0800 c3         1 DXU      -0.040300
     19 C1         -35.9550    22.9360   -42.5390 c          1 DXU       0.555900
     20 O1         -35.3530    22.2180   -43.3320 o          1 DXU      -0.503100
     21 C3         -35.5300    23.5210   -40.1180 c5         1 DXU       0.331500
     22 S4         -36.3110    23.5600   -38.4300 ss         1 DXU      -0.443000
     23 C5         -34.7300    23.1150   -37.5690 c5         1 DXU       0.131000
     24 C52        -34.0380    24.4280   -37.1100 c3         1 DXU      -0.076600
     25 C51        -35.0890    22.2760   -36.3180 c3         1 DXU      -0.076600
     26 C6         -33.9670    22.3280   -38.6890 c5         1 DXU       0.193500
     27 N7         -34.0970    23.2070   -39.8980 n7         1 DXU      -0.903400
     28 C8         -32.4740    21.9280   -38.3730 c3         1 DXU       0.391300
     29 O82        -32.3930    20.9230   -37.3770 oh         1 DXU      -0.677500
     30 O81        -31.8540    21.3690   -39.5230 oh         1 DXU      -0.677500
     31 H1         -39.6970    20.4600   -44.4720 ha         1 DXU       0.137000
     32 H2         -37.8630    20.3210   -46.1400 ha         1 DXU       0.126000
     33 H3         -35.7990    19.0450   -45.5940 ha         1 DXU       0.137000
     34 H4         -36.7440    16.8930   -41.4480 h1         1 DXU       0.092700
     35 H5         -38.8890    18.5060   -40.2560 hn         1 DXU       0.425000
     36 H6         -35.7130    17.1050   -39.1580 h1         1 DXU       0.047700
     37 H7         -36.0490    18.0230   -36.9340 hc         1 DXU       0.054700
     38 H8         -35.0630    19.1760   -37.8440 hc         1 DXU       0.054700
     39 H9         -36.7890    19.4990   -37.5660 hc         1 DXU       0.054700
     40 H10        -35.2920    18.7920   -40.8030 hc         1 DXU       0.071700
     41 H11        -35.1770    20.6810   -41.2940 hn         1 DXU       0.325500
     42 H12        -37.3350    22.7310   -40.9630 h1         1 DXU       0.119700
     43 H13        -36.3260    23.9390   -42.8450 h4         1 DXU      -0.002800
     44 H14        -35.6260    24.5330   -40.5380 h2         1 DXU       0.090700
     45 H15        -34.6800    24.9940   -36.4240 hc         1 DXU       0.048367
     46 H16        -33.0980    24.2230   -36.5850 hc         1 DXU       0.048367
     47 H17        -33.8080    25.0860   -37.9560 hc         1 DXU       0.048367
     48 H18        -35.7660    22.8270   -35.6550 hc         1 DXU       0.048367
     49 H19        -35.5910    21.3440   -36.5960 hc         1 DXU       0.048367
     50 H20        -34.1990    22.0170   -35.7330 hc         1 DXU       0.048367
     51 H21        -34.4930    21.3810   -38.8640 h1         1 DXU       0.060700
     52 H22        -33.6980    22.7290   -40.7150 hn         1 DXU       0.453000
     53 H24        -31.5010    21.0020   -36.9780 ho         1 DXU       0.448500
     54 H25        -30.9090    21.6230   -39.4770 ho         1 DXU       0.448500
     55 H23        -31.9160    22.8180   -38.0530 h2         1 DXU       0.037700
@<TRIPOS>BOND
     1     1     2 1   
     2     2     3 ar  
     3     2     8 ar  
     4     3     4 ar  
     5     3    31 1   
     6     4     5 ar  
     7     4    32 1   
     8     5     6 ar  
     9     5    33 1   
    10     6     7 1   
    11     6     8 ar  
    12     8     9 1   
    13     9    10 1   
    14     9    14 1   
    15     9    34 1   
    16    10    11 1   
    17    10    35 1   
    18    11    12 1   
    19    12    13 1   
    20    12    14 1   
    21    12    36 1   
    22    13    37 1   
    23    13    38 1   
    24    13    39 1   
    25    14    15 1   
    26    14    40 1   
    27    15    16 2   
    28    15    17 1   
    29    17    18 1   
    30    17    41 1   
    31    18    19 1   
    32    18    21 1   
    33    18    42 1   
    34    19    20 2   
    35    19    43 1   
    36    21    22 1   
    37    21    27 1   
    38    21    44 1   
    39    22    23 1   
    40    23    24 1   
    41    23    25 1   
    42    23    26 1   
    43    24    45 1   
    44    24    46 1   
    45    24    47 1   
    46    25    48 1   
    47    25    49 1   
    48    25    50 1   
    49    26    27 1   
    50    26    28 1   
    51    26    51 1   
    52    27    52 1   
    53    28    29 1   
    54    28    30 1   
    55    28    55 1   
    56    29    53 1   
    57    30    54 1   
@<TRIPOS>SUBSTRUCTURE
     1 DXU         1 TEMP              0 ****  ****    0 ROOT
