@<TRIPOS>MOLECULE
DXU
   55    57     1     0     0
SMALL
abcg2


@<TRIPOS>ATOM
      1 CL1        -40.0780    18.6440   -42.0250 cl         1 DXU      -0.195000
      2 C29        -38.6440    18.9230   -42.9950 ca         1 DXU       0.140500
      3 C30        -38.8780    19.5220   -44.2280 ca         1 DXU      -0.097500
      4 C31        -37.8180    19.8050   -45.0720 ca         1 DXU      -0.089000
      5 C32        -36.5260    19.4950   -44.6790 ca         1 DXU      -0.097500
      6 C33        -36.3210    18.8970   -43.4470 ca         1 DXU       0.140500
      7 CL2        -34.6510    18.5800   -43.0080 cl         1 DXU      -0.195000
      8 C28        -37.3590    18.5730   -42.5540 ca         1 DXU      -0.090300
      9 C26        -36.9820    17.9050   -41.2420 c5         1 DXU       0.174800
     10 N25        -37.9370    16.9500   -40.6170 n7         1 DXU      -0.575900
     11 O24        -38.4190    17.5900   -39.4080 os         1 DXU      -0.251300
     12 C23        -37.2530    18.2040   -38.8720 c5         1 DXU       0.175300
     13 C27        -37.6330    19.0570   -37.6830 c3         1 DXU      -0.093100
     14 C22        -36.5900    18.8860   -40.0870 c5         1 DXU      -0.167700
     15 C21        -37.0290    20.3200   -40.3380 c          1 DXU       0.614100
     16 O21        -38.1890    20.7010   -40.2210 o          1 DXU      -0.578100
     17 N2         -36.0250    21.1480   -40.7090 ns         1 DXU      -0.494900
     18 C2         -36.2210    22.5490   -40.9530 c3         1 DXU      -0.040300
     19 C1         -35.8700    22.9560   -42.3680 c          1 DXU       0.555900
     20 O1         -35.3510    22.2330   -43.1830 o          1 DXU      -0.503100
     21 C3         -35.4370    23.4650   -39.9680 c5         1 DXU       0.331500
     22 S4         -36.0290    23.2480   -38.2480 ss         1 DXU      -0.443000
     23 C5         -34.3490    22.8360   -37.5610 c5         1 DXU       0.131000
     24 C52        -33.7160    24.0880   -36.9550 c3         1 DXU      -0.076600
     25 C51        -34.5320    21.7560   -36.4990 c3         1 DXU      -0.076600
     26 C6         -33.6160    22.3300   -38.8220 c5         1 DXU       0.193500
     27 N7         -34.0050    23.2300   -39.9040 n7         1 DXU      -0.903400
     28 C8         -32.0930    22.3180   -38.7480 c3         1 DXU       0.391300
     29 O82        -31.7010    21.4600   -37.7010 oh         1 DXU      -0.677500
     30 O81        -31.6390    21.8400   -40.0040 oh         1 DXU      -0.677500
     31 H1         -39.8920    19.7630   -44.5130 ha         1 DXU       0.137000
     32 H2         -37.9970    20.2710   -46.0310 ha         1 DXU       0.126000
     33 H3         -35.6810    19.7220   -45.3120 ha         1 DXU       0.137000
     34 H4         -36.0970    17.3160   -41.4630 h1         1 DXU       0.092700
     35 H5         -38.7820    16.8690   -41.1730 hn         1 DXU       0.425000
     36 H6         -36.5630    17.4140   -38.5480 h1         1 DXU       0.047700
     37 H7         -38.0530    18.4270   -36.8980 hc         1 DXU       0.054700
     38 H8         -36.7440    19.5470   -37.2880 hc         1 DXU       0.054700
     39 H9         -38.3570    19.8190   -37.9600 hc         1 DXU       0.054700
     40 H10        -35.5090    18.8690   -39.9640 hc         1 DXU       0.071700
     41 H11        -35.1060    20.7640   -40.8610 hn         1 DXU       0.325500
     42 H12        -37.2840    22.7680   -40.8250 h1         1 DXU       0.119700
     43 H13        -36.1090    24.0080   -42.6060 h4         1 DXU      -0.002800
     44 H14        -35.6320    24.4950   -40.2720 h2         1 DXU       0.090700
     45 H15        -34.3600    24.4880   -36.1710 hc         1 DXU       0.048367
     46 H16        -32.7510    23.8430   -36.5070 hc         1 DXU       0.048367
     47 H17        -33.5680    24.8620   -37.7080 hc         1 DXU       0.048367
     48 H18        -35.2240    22.0950   -35.7270 hc         1 DXU       0.048367
     49 H19        -34.9240    20.8380   -36.9380 hc         1 DXU       0.048367
     50 H20        -33.5750    21.5360   -36.0290 hc         1 DXU       0.048367
     51 H21        -33.9280    21.2910   -38.9890 h1         1 DXU       0.060700
     52 H22        -33.6050    22.9440   -40.7890 hn         1 DXU       0.453000
     53 H24        -30.7790    21.6440   -37.4780 ho         1 DXU       0.448500
     54 H25        -30.7280    22.1320   -40.1410 ho         1 DXU       0.448500
     55 H23        -31.7030    23.3240   -38.5810 h2         1 DXU       0.037700
@<TRIPOS>BOND
     1     1     2 1   
     2     2     3 ar  
     3     2     8 ar  
     4     3     4 ar  
     5     3    31 1   
     6     4     5 ar  
     7     4    32 1   
     8     5     6 ar  
     9     5    33 1   
    10     6     7 1   
    11     6     8 ar  
    12     8     9 1   
    13     9    10 1   
    14     9    14 1   
    15     9    34 1   
    16    10    11 1   
    17    10    35 1   
    18    11    12 1   
    19    12    13 1   
    20    12    14 1   
    21    12    36 1   
    22    13    37 1   
    23    13    38 1   
    24    13    39 1   
    25    14    15 1   
    26    14    40 1   
    27    15    16 2   
    28    15    17 1   
    29    17    18 1   
    30    17    41 1   
    31    18    19 1   
    32    18    21 1   
    33    18    42 1   
    34    19    20 2   
    35    19    43 1   
    36    21    22 1   
    37    21    27 1   
    38    21    44 1   
    39    22    23 1   
    40    23    24 1   
    41    23    25 1   
    42    23    26 1   
    43    24    45 1   
    44    24    46 1   
    45    24    47 1   
    46    25    48 1   
    47    25    49 1   
    48    25    50 1   
    49    26    27 1   
    50    26    28 1   
    51    26    51 1   
    52    27    52 1   
    53    28    29 1   
    54    28    30 1   
    55    28    55 1   
    56    29    53 1   
    57    30    54 1   
@<TRIPOS>SUBSTRUCTURE
     1 DXU         1 TEMP              0 ****  ****    0 ROOT
