@<TRIPOS>MOLECULE
DXV
   50    54     1     0     0
SMALL
No Charge or Current Charge


@<TRIPOS>ATOM
      1 C4          -5.5990     1.2310     2.5990 c5         1 DXV      -0.079400
      2 C14          1.6680     1.3530    -0.4200 ca         1 DXV      -0.125800
      3 C5          -6.1670     1.7300     1.2270 c5         1 DXV      -0.079400
      4 C6          -3.0940    -0.1960     0.1190 ca         1 DXV      -0.050300
      5 C11          0.2490     1.4930    -0.5460 cc         1 DXV      -0.023400
      6 C7          -2.0460     0.7590     0.0860 ca         1 DXV      -0.117000
      7 C8          -2.8630    -1.4640    -0.4830 ca         1 DXV      -0.100600
      8 C9          -0.8090     0.4830    -0.5260 ca         1 DXV      -0.071800
      9 C10         -1.6270    -1.7320    -1.1070 ca         1 DXV      -0.098000
     10 C12         -0.6090    -0.7680    -1.1300 ca         1 DXV      -0.121000
     11 C13         -3.9060    -2.5550    -0.4870 c          1 DXV       0.709600
     12 N1           1.2210     3.5250    -0.8050 na         1 DXV      -0.329400
     13 N2           3.5520     2.8150    -0.5090 nb         1 DXV      -0.698000
     14 C3          -4.2400     0.5450     2.2600 c5         1 DXV      -0.072900
     15 O1          -4.1500    -3.1270     0.5650 o          1 DXV      -0.716500
     16 O2          -4.4130    -2.8600    -1.5580 o          1 DXV      -0.716500
     17 C1          -4.4540     0.1300     0.7790 c5         1 DXV      -0.015400
     18 C2          -5.0280     1.4530     0.2070 c5         1 DXV      -0.072900
     19 C15         -0.0170     2.8310    -0.7810 cd         1 DXV      -0.172100
     20 C16          2.2260     2.5990    -0.5830 ca         1 DXV       0.362500
     21 C17          2.4500     0.2260    -0.1400 ca         1 DXV      -0.001000
     22 C18          3.8540     0.4130    -0.0560 cp         1 DXV      -0.143000
     23 C19          4.3400     1.7380    -0.2550 ca         1 DXV       0.361900
     24 C20          4.7800    -0.7280     0.2310 cp         1 DXV      -0.009000
     25 C21          5.9880    -0.5290     0.9490 ca         1 DXV      -0.105000
     26 C22          4.4820    -2.0440    -0.2070 ca         1 DXV      -0.105000
     27 C23          6.8570    -1.6000     1.2190 ca         1 DXV      -0.112000
     28 C24          5.3520    -3.1150     0.0620 ca         1 DXV      -0.112000
     29 C25          6.5400    -2.8930     0.7750 ca         1 DXV      -0.119000
     30 H1          -5.4610     2.0550     3.3090 hc         1 DXV       0.027700
     31 H2          -6.2930     0.5230     3.0680 hc         1 DXV       0.027700
     32 H3          -7.0730     1.1730     0.9590 hc         1 DXV       0.027700
     33 H4          -6.4420     2.7900     1.2530 hc         1 DXV       0.027700
     34 H5          -2.1830     1.7310     0.5490 ha         1 DXV       0.087000
     35 H6          -1.4580    -2.6990    -1.5770 ha         1 DXV       0.124000
     36 H7           0.3280    -0.9940    -1.6310 ha         1 DXV       0.089000
     37 H8           1.3640     4.5150    -0.9620 hn         1 DXV       0.351000
     38 H9          -3.4140     1.2520     2.3910 hc         1 DXV       0.040700
     39 H10         -4.0340    -0.3140     2.9070 hc         1 DXV       0.040700
     40 H12         -5.1920    -0.6770     0.6990 hc         1 DXV       0.095700
     41 H13         -5.4030     1.3400    -0.8170 hc         1 DXV       0.040700
     42 H14         -4.3080     2.2780     0.2010 hc         1 DXV       0.040700
     43 H15         -0.9700     3.3260    -0.9510 h4         1 DXV       0.217000
     44 H16          1.9930    -0.7450     0.0280 ha         1 DXV       0.134000
     45 H17          5.4090     1.9440    -0.2150 h4         1 DXV       0.010100
     46 H18          6.2490     0.4600     1.3150 ha         1 DXV       0.115500
     47 H19          3.5750    -2.2370    -0.7740 ha         1 DXV       0.115500
     48 H20          7.7760    -1.4270     1.7750 ha         1 DXV       0.107500
     49 H21          5.1050    -4.1160    -0.2860 ha         1 DXV       0.107500
     50 H22          7.2130    -3.7220     0.9840 ha         1 DXV       0.105000
@<TRIPOS>BOND
     1     1     3 1   
     2     1    14 1   
     3     1    30 1   
     4     1    31 1   
     5     2     5 1   
     6     2    20 ar  
     7     2    21 ar  
     8     3    18 1   
     9     3    32 1   
    10     3    33 1   
    11     4     6 ar  
    12     4     7 ar  
    13     4    17 1   
    14     5     8 1   
    15     5    19 2   
    16     6     8 ar  
    17     6    34 1   
    18     7     9 ar  
    19     7    11 1   
    20     8    10 ar  
    21     9    10 ar  
    22     9    35 1   
    23    10    36 1   
    24    11    15 1   
    25    11    16 1   
    26    12    19 1   
    27    12    20 1   
    28    12    37 1   
    29    13    20 ar  
    30    13    23 ar  
    31    14    17 1   
    32    14    38 1   
    33    14    39 1   
    34    17    18 1   
    35    17    40 1   
    36    18    41 1   
    37    18    42 1   
    38    19    43 1   
    39    21    22 ar  
    40    21    44 1   
    41    22    23 ar  
    42    22    24 1   
    43    23    45 1   
    44    24    25 ar  
    45    24    26 ar  
    46    25    27 ar  
    47    25    46 1   
    48    26    28 ar  
    49    26    47 1   
    50    27    29 ar  
    51    27    48 1   
    52    28    29 ar  
    53    28    49 1   
    54    29    50 1   
@<TRIPOS>SUBSTRUCTURE
     1 DXV         1 TEMP              0 ****  ****    0 ROOT
