@<TRIPOS>MOLECULE
DXV
   50    54     1     0     0
SMALL
abcg2


@<TRIPOS>ATOM
      1 C4          -5.6450     1.2910     2.5460 c5         1 DXV      -0.079400
      2 C14          1.6390     1.2320    -0.4250 ca         1 DXV      -0.125800
      3 C5          -6.1300     1.8580     1.1950 c5         1 DXV      -0.079400
      4 C6          -3.1280    -0.1940     0.1000 ca         1 DXV      -0.050300
      5 C11          0.2230     1.4280    -0.5600 cc         1 DXV      -0.023400
      6 C7          -2.0860     0.7290     0.0260 ca         1 DXV      -0.117000
      7 C8          -2.9040    -1.4970    -0.3700 ca         1 DXV      -0.100600
      8 C9          -0.8350     0.4200    -0.5050 ca         1 DXV      -0.071800
      9 C10         -1.6640    -1.7980    -0.9370 ca         1 DXV      -0.098000
     10 C12         -0.6390    -0.8710    -0.9960 ca         1 DXV      -0.121000
     11 C13         -3.9180    -2.6290    -0.2720 c          1 DXV       0.709600
     12 N1           1.2570     3.4160    -0.7400 na         1 DXV      -0.329400
     13 N2           3.5390     2.7640    -0.4670 nb         1 DXV      -0.698000
     14 C3          -4.4460     0.3790     2.2130 c5         1 DXV      -0.072900
     15 O1          -4.5420    -2.7400     0.8010 o          1 DXV      -0.716500
     16 O2          -4.0060    -3.3770    -1.2650 o          1 DXV      -0.716500
     17 C1          -4.4480     0.2480     0.6820 c5         1 DXV      -0.015400
     18 C2          -4.9680     1.6170     0.2340 c5         1 DXV      -0.072900
     19 C15          0.0520     2.7760    -0.7500 cd         1 DXV      -0.172100
     20 C16          2.2450     2.5040    -0.5440 ca         1 DXV       0.362500
     21 C17          2.4870     0.1590    -0.1720 ca         1 DXV      -0.001000
     22 C18          3.8530     0.3980    -0.0810 cp         1 DXV      -0.143000
     23 C19          4.3160     1.7170    -0.2460 ca         1 DXV       0.361900
     24 C20          4.8060    -0.6990     0.1750 cp         1 DXV      -0.009000
     25 C21          5.9090    -0.5140     1.0120 ca         1 DXV      -0.105000
     26 C22          4.6220    -1.9520    -0.4140 ca         1 DXV      -0.105000
     27 C23          6.8010    -1.5500     1.2500 ca         1 DXV      -0.112000
     28 C24          5.5110    -2.9890    -0.1710 ca         1 DXV      -0.112000
     29 C25          6.6050    -2.7920     0.6620 ca         1 DXV      -0.119000
     30 H1          -5.3400     2.0950     3.2180 hc         1 DXV       0.027700
     31 H2          -6.4410     0.7460     3.0540 hc         1 DXV       0.027700
     32 H3          -7.0080     1.3060     0.8510 hc         1 DXV       0.027700
     33 H4          -6.4200     2.9080     1.2580 hc         1 DXV       0.027700
     34 H5          -2.2450     1.7300     0.4100 ha         1 DXV       0.087000
     35 H6          -1.4960    -2.7910    -1.3340 ha         1 DXV       0.124000
     36 H7           0.3030    -1.1480    -1.4530 ha         1 DXV       0.089000
     37 H8           1.3920     4.4060    -0.8660 hn         1 DXV       0.351000
     38 H9          -3.5120     0.8430     2.5410 hc         1 DXV       0.040700
     39 H10         -4.5020    -0.6000     2.6890 hc         1 DXV       0.040700
     40 H12         -5.2110    -0.4840     0.4190 hc         1 DXV       0.095700
     41 H13         -5.2660     1.6350    -0.8170 hc         1 DXV       0.040700
     42 H14         -4.2090     2.3920     0.3710 hc         1 DXV       0.040700
     43 H15         -0.8570     3.3320    -0.9140 h4         1 DXV       0.217000
     44 H16          2.0970    -0.8400    -0.0210 ha         1 DXV       0.134000
     45 H17          5.3820     1.9160    -0.2060 h4         1 DXV       0.010100
     46 H18          6.0630     0.4410     1.4980 ha         1 DXV       0.115500
     47 H19          3.7880    -2.1140    -1.0850 ha         1 DXV       0.115500
     48 H20          7.6460    -1.3870     1.9060 ha         1 DXV       0.107500
     49 H21          5.3520    -3.9510    -0.6420 ha         1 DXV       0.107500
     50 H22          7.2980    -3.6010     0.8510 ha         1 DXV       0.105000
@<TRIPOS>BOND
     1     1     3 1   
     2     1    14 1   
     3     1    30 1   
     4     1    31 1   
     5     2     5 1   
     6     2    20 ar  
     7     2    21 ar  
     8     3    18 1   
     9     3    32 1   
    10     3    33 1   
    11     4     6 ar  
    12     4     7 ar  
    13     4    17 1   
    14     5     8 1   
    15     5    19 2   
    16     6     8 ar  
    17     6    34 1   
    18     7     9 ar  
    19     7    11 1   
    20     8    10 ar  
    21     9    10 ar  
    22     9    35 1   
    23    10    36 1   
    24    11    15 1   
    25    11    16 1   
    26    12    19 1   
    27    12    20 1   
    28    12    37 1   
    29    13    20 ar  
    30    13    23 ar  
    31    14    17 1   
    32    14    38 1   
    33    14    39 1   
    34    17    18 1   
    35    17    40 1   
    36    18    41 1   
    37    18    42 1   
    38    19    43 1   
    39    21    22 ar  
    40    21    44 1   
    41    22    23 ar  
    42    22    24 1   
    43    23    45 1   
    44    24    25 ar  
    45    24    26 ar  
    46    25    27 ar  
    47    25    46 1   
    48    26    28 ar  
    49    26    47 1   
    50    27    29 ar  
    51    27    48 1   
    52    28    29 ar  
    53    28    49 1   
    54    29    50 1   
@<TRIPOS>SUBSTRUCTURE
     1 DXV         1 TEMP              0 ****  ****    0 ROOT
