@<TRIPOS>MOLECULE
DXW
   50    52     1     0     0
SMALL
abcg2


@<TRIPOS>ATOM
      1 N02          3.6170     2.4750     2.4440 nv         1 DXW      -1.052900
      2 C02          3.2540     2.2510     1.1450 ca         1 DXW       0.596900
      3 C03          3.8190     3.0050     0.1030 ca         1 DXW      -0.232000
      4 C04          3.3890     2.7880    -1.1900 ca         1 DXW      -0.000300
      5 C05          2.4020     1.8200    -1.4030 ca         1 DXW      -0.218000
      6 C07          3.9630     3.5570    -2.3410 c3         1 DXW      -0.053800
      7 N01          2.3200     1.3300     0.9310 nb         1 DXW      -0.748000
      8 C06          1.9050     1.1170    -0.3190 ca         1 DXW       0.396300
      9 C08          0.8910     0.0250    -0.5130 c3         1 DXW      -0.110700
     10 C3           1.5690    -1.3250    -0.7410 c5         1 DXW      -0.088700
     11 C4           0.6270    -2.4680    -1.1190 c5         1 DXW       0.149300
     12 C5           1.4620    -3.7260    -0.8040 c5         1 DXW       0.113800
     13 N1           2.5590    -3.3180     0.0840 n7         1 DXW      -0.835400
     14 C2           2.3170    -1.9250     0.4490 c5         1 DXW       0.147800
     15 O09         -0.5260    -2.3870    -0.3100 os         1 DXW      -0.459000
     16 C10         -1.6300    -3.1190    -0.7840 c3         1 DXW       0.158600
     17 C11         -2.8180    -2.8190     0.1020 c3         1 DXW       0.157800
     18 N12         -3.1790    -1.4150     0.0400 n7         1 DXW      -0.854400
     19 C13         -4.2600    -1.0910     0.9570 c3         1 DXW       0.132500
     20 C22         -4.6070     0.3520     0.9170 cc         1 DXW       0.129300
     21 O21         -3.6810     1.2300     1.3690 os         1 DXW      -0.244000
     22 C23         -4.1910     2.4730     1.2390 cc         1 DXW       0.125900
     23 C24         -5.4360     2.4150     0.7160 cd         1 DXW      -0.190000
     24 C25         -5.7070     1.0270     0.5030 cd         1 DXW      -0.172000
     25 H1           3.3990     1.7380     3.0950 hn         1 DXW       0.467000
     26 H2           4.5090     2.9120     2.6060 hn         1 DXW       0.467000
     27 H3           4.5800     3.7470     0.3160 ha         1 DXW       0.119000
     28 H4           2.0340     1.6150    -2.4010 ha         1 DXW       0.121000
     29 H5           4.5010     2.8920    -3.0190 hc         1 DXW       0.046033
     30 H6           3.1750     4.0360    -2.9230 hc         1 DXW       0.046033
     31 H7           4.6550     4.3280    -2.0070 hc         1 DXW       0.046033
     32 H8           0.2440    -0.0220     0.3650 hc         1 DXW       0.067700
     33 H9           0.2580     0.2580    -1.3730 hc         1 DXW       0.067700
     34 H10          2.2850    -1.2200    -1.5650 hc         1 DXW       0.046700
     35 H11          0.3400    -2.4220    -2.1780 h1         1 DXW       0.043700
     36 H12          0.8300    -4.4830    -0.3280 h1         1 DXW       0.050200
     37 H13          1.8570    -4.1750    -1.7170 h1         1 DXW       0.050200
     38 H14          3.4260    -3.3610    -0.4340 hn         1 DXW       0.394000
     39 H16          3.2560    -1.4200     0.6740 h1         1 DXW       0.064700
     40 H17          1.6970    -1.8680     1.3510 h1         1 DXW       0.064700
     41 H18         -1.8590    -2.8410    -1.8220 h1         1 DXW       0.029700
     42 H19         -1.4370    -4.2000    -0.7700 h1         1 DXW       0.029700
     43 H20         -3.6630    -3.4190    -0.2510 h1         1 DXW       0.037700
     44 H21         -2.6040    -3.1590     1.1280 h1         1 DXW       0.037700
     45 H22         -2.3620    -0.8690     0.2880 hn         1 DXW       0.431000
     46 H24         -5.1510    -1.6510     0.6650 h1         1 DXW       0.045700
     47 H25         -4.0350    -1.3900     1.9940 h1         1 DXW       0.045700
     48 H26         -3.5630     3.2900     1.5560 h4         1 DXW       0.052100
     49 H27         -6.0820     3.2510     0.5040 ha         1 DXW       0.140000
     50 H28         -6.6040     0.5900     0.0930 ha         1 DXW       0.140000
@<TRIPOS>BOND
     1     1     2 1   
     2     1    25 1   
     3     1    26 1   
     4     2     3 ar  
     5     2     7 ar  
     6     3     4 ar  
     7     3    27 1   
     8     4     5 ar  
     9     4     6 1   
    10     5     8 ar  
    11     5    28 1   
    12     6    29 1   
    13     6    30 1   
    14     6    31 1   
    15     7     8 ar  
    16     8     9 1   
    17     9    10 1   
    18     9    32 1   
    19     9    33 1   
    20    10    11 1   
    21    10    14 1   
    22    10    34 1   
    23    11    12 1   
    24    11    15 1   
    25    11    35 1   
    26    12    13 1   
    27    12    36 1   
    28    12    37 1   
    29    13    14 1   
    30    13    38 1   
    31    14    39 1   
    32    14    40 1   
    33    15    16 1   
    34    16    17 1   
    35    16    41 1   
    36    16    42 1   
    37    17    18 1   
    38    17    43 1   
    39    17    44 1   
    40    18    19 1   
    41    18    45 1   
    42    19    20 1   
    43    19    46 1   
    44    19    47 1   
    45    20    21 1   
    46    20    24 2   
    47    21    22 1   
    48    22    23 2   
    49    22    48 1   
    50    23    24 1   
    51    23    49 1   
    52    24    50 1   
@<TRIPOS>SUBSTRUCTURE
     1 DXW         1 TEMP              0 ****  ****    0 ROOT
