@<TRIPOS>MOLECULE
DXW
   50    52     1     0     0
SMALL
No Charge or Current Charge


@<TRIPOS>ATOM
      1 N02          3.1820     2.6510     2.5080 nv         1 DXW      -1.052900
      2 C02          3.0480     2.4320     1.1980 ca         1 DXW       0.596900
      3 C03          3.7810     3.1130     0.2240 ca         1 DXW      -0.232000
      4 C04          3.5610     2.7900    -1.1230 ca         1 DXW      -0.000300
      5 C05          2.6130     1.7910    -1.3990 ca         1 DXW      -0.218000
      6 C07          4.3230     3.4850    -2.2390 c3         1 DXW      -0.053800
      7 N01          2.1520     1.4870     0.9580 nb         1 DXW      -0.748000
      8 C06          1.9320     1.1670    -0.3370 ca         1 DXW       0.396300
      9 C08          0.9090     0.0730    -0.6090 c3         1 DXW      -0.110700
     10 C3           1.5460    -1.3070    -0.9310 c5         1 DXW      -0.088700
     11 C4           0.5610    -2.4540    -1.3170 c5         1 DXW       0.149300
     12 C5           1.3790    -3.7520    -0.9650 c5         1 DXW       0.113800
     13 N1           2.6520    -3.2980    -0.3310 n7         1 DXW      -0.835400
     14 C2           2.3080    -1.9760     0.2410 c5         1 DXW       0.147800
     15 O09         -0.6040    -2.3700    -0.4530 os         1 DXW      -0.459000
     16 C10         -1.6950    -3.2810    -0.7180 c3         1 DXW       0.158600
     17 C11         -2.8440    -2.9660     0.2740 c3         1 DXW       0.157800
     18 N12         -3.2840    -1.5570     0.1530 n7         1 DXW      -0.854400
     19 C13         -4.2110    -1.0870     1.2060 c3         1 DXW       0.132500
     20 C22         -4.5310     0.3810     1.0470 cc         1 DXW       0.129300
     21 O21         -3.5890     1.3220     1.4070 os         1 DXW      -0.244000
     22 C23         -4.1440     2.5590     1.1570 cc         1 DXW       0.125900
     23 C24         -5.4060     2.3980     0.6530 cd         1 DXW      -0.190000
     24 C25         -5.6530     1.0120     0.5820 cd         1 DXW      -0.172000
     25 H1           2.7730     1.9390     3.0990 hn         1 DXW       0.467000
     26 H2           4.0470     3.0700     2.8300 hn         1 DXW       0.467000
     27 H3           4.5020     3.8730     0.5070 ha         1 DXW       0.119000
     28 H4           2.4050     1.4960    -2.4240 ha         1 DXW       0.121000
     29 H5           5.2330     2.9300    -2.4940 hc         1 DXW       0.046033
     30 H6           3.7130     3.5670    -3.1460 hc         1 DXW       0.046033
     31 H7           4.6190     4.5000    -1.9480 hc         1 DXW       0.046033
     32 H8           0.2320    -0.0170     0.2490 hc         1 DXW       0.067700
     33 H9           0.2760     0.3830    -1.4480 hc         1 DXW       0.067700
     34 H10          2.2360    -1.1330    -1.7660 hc         1 DXW       0.046700
     35 H11          0.2470    -2.4050    -2.3690 h1         1 DXW       0.043700
     36 H12          0.8220    -4.3890    -0.2640 h1         1 DXW       0.050200
     37 H13          1.5830    -4.3560    -1.8600 h1         1 DXW       0.050200
     38 H14          3.3440    -3.1410    -1.0740 hn         1 DXW       0.394000
     39 H16          3.2040    -1.4090     0.5330 h1         1 DXW       0.064700
     40 H17          1.6670    -2.0790     1.1290 h1         1 DXW       0.064700
     41 H18         -2.0590    -3.1580    -1.7470 h1         1 DXW       0.029700
     42 H19         -1.3820    -4.3240    -0.5870 h1         1 DXW       0.029700
     43 H20         -3.6820    -3.6490     0.0830 h1         1 DXW       0.037700
     44 H21         -2.4790    -3.1670     1.2910 h1         1 DXW       0.037700
     45 H22         -2.4300    -0.9840     0.2020 hn         1 DXW       0.431000
     46 H24         -5.1500    -1.6570     1.1730 h1         1 DXW       0.045700
     47 H25         -3.7710    -1.2370     2.2010 h1         1 DXW       0.045700
     48 H26         -3.5520     3.4370     1.3770 h4         1 DXW       0.052100
     49 H27         -6.0830     3.1960     0.3630 ha         1 DXW       0.140000
     50 H28         -6.5570     0.5280     0.2260 ha         1 DXW       0.140000
@<TRIPOS>BOND
     1     1     2 1   
     2     1    25 1   
     3     1    26 1   
     4     2     3 ar  
     5     2     7 ar  
     6     3     4 ar  
     7     3    27 1   
     8     4     5 ar  
     9     4     6 1   
    10     5     8 ar  
    11     5    28 1   
    12     6    29 1   
    13     6    30 1   
    14     6    31 1   
    15     7     8 ar  
    16     8     9 1   
    17     9    10 1   
    18     9    32 1   
    19     9    33 1   
    20    10    11 1   
    21    10    14 1   
    22    10    34 1   
    23    11    12 1   
    24    11    15 1   
    25    11    35 1   
    26    12    13 1   
    27    12    36 1   
    28    12    37 1   
    29    13    14 1   
    30    13    38 1   
    31    14    39 1   
    32    14    40 1   
    33    15    16 1   
    34    16    17 1   
    35    16    41 1   
    36    16    42 1   
    37    17    18 1   
    38    17    43 1   
    39    17    44 1   
    40    18    19 1   
    41    18    45 1   
    42    19    20 1   
    43    19    46 1   
    44    19    47 1   
    45    20    21 1   
    46    20    24 2   
    47    21    22 1   
    48    22    23 2   
    49    22    48 1   
    50    23    24 1   
    51    23    49 1   
    52    24    50 1   
@<TRIPOS>SUBSTRUCTURE
     1 DXW         1 TEMP              0 ****  ****    0 ROOT
