@<TRIPOS>MOLECULE
DXX
   12    11     1     0     0
SMALL
No Charge or Current Charge


@<TRIPOS>ATOM
      1 C1          -0.1390     0.3270    -1.2790 c          1 DXX       0.722500
      2 OXT         -0.1100     1.3260    -1.9820 o          1 DXX      -0.774750
      3 O1          -0.7780    -0.6690    -1.5820 o          1 DXX      -0.774750
      4 CA           0.7390     0.3140    -0.0310 c3         1 DXX      -0.292700
      5 CB           1.7450    -0.8640     0.0030 c3         1 DXX      -0.040100
      6 C           -0.1770     0.3650     1.1890 c          1 DXX       0.722500
      7 O           -0.8260    -0.6210     1.5020 o          1 DXX      -0.774750
      8 O2          -0.1700     1.3860     1.8600 o          1 DXX      -0.774750
      9 HA           1.3110     1.2510    -0.0370 hc         1 DXX       0.015700
     10 HB1          1.2310    -1.8320     0.0100 hc         1 DXX      -0.009633
     11 HB2          2.4010    -0.8300    -0.8750 hc         1 DXX      -0.009633
     12 HB3          2.3730    -0.8020     0.8990 hc         1 DXX      -0.009633
@<TRIPOS>BOND
     1     1     2 1   
     2     1     3 1   
     3     1     4 1   
     4     4     5 1   
     5     4     6 1   
     6     4     9 1   
     7     5    10 1   
     8     5    11 1   
     9     5    12 1   
    10     6     7 1   
    11     6     8 1   
@<TRIPOS>SUBSTRUCTURE
     1 DXX         1 TEMP              0 ****  ****    0 ROOT
