@<TRIPOS>MOLECULE
DXX
   12    11     1     0     0
SMALL
abcg2


@<TRIPOS>ATOM
      1 C1          -0.1360     0.2340    -1.3710 c          1 DXX       0.722500
      2 OXT          0.4130     0.8350    -2.3260 o          1 DXX      -0.774750
      3 O1          -1.1700    -0.4510    -1.4570 o          1 DXX      -0.774750
      4 CA           0.6100     0.3540    -0.0250 c3         1 DXX      -0.292700
      5 CB           1.7430    -0.6850    -0.0070 c3         1 DXX      -0.040100
      6 C           -0.1690     0.2170     1.2970 c          1 DXX       0.722500
      7 O           -1.0370    -0.6680     1.4070 o          1 DXX      -0.774750
      8 O2           0.1580     1.0290     2.1950 o          1 DXX      -0.774750
      9 HA           1.0900     1.3370    -0.0240 hc         1 DXX       0.015700
     10 HB1          1.3430    -1.7000     0.0370 hc         1 DXX      -0.009633
     11 HB2          2.3590    -0.6070    -0.9040 hc         1 DXX      -0.009633
     12 HB3          2.3960    -0.5430     0.8550 hc         1 DXX      -0.009633
@<TRIPOS>BOND
     1     1     2 1   
     2     1     3 1   
     3     1     4 1   
     4     4     5 1   
     5     4     6 1   
     6     4     9 1   
     7     5    10 1   
     8     5    11 1   
     9     5    12 1   
    10     6     7 1   
    11     6     8 1   
@<TRIPOS>SUBSTRUCTURE
     1 DXX         1 TEMP              0 ****  ****    0 ROOT
