@<TRIPOS>MOLECULE
DXY
   58    59     1     0     0
SMALL
No Charge or Current Charge


@<TRIPOS>ATOM
      1 OE1          7.7720    -3.0720     0.0560 o          1 DXY      -0.760000
      2 CD           8.0920    -2.0480     0.6410 c          1 DXY       0.712000
      3 OE2          9.2080    -1.8550     1.0980 o          1 DXY      -0.760000
      4 CG           7.0530    -0.9160     0.7500 c3         1 DXY      -0.201400
      5 CB           7.1550     0.0220    -0.4810 c3         1 DXY      -0.055400
      6 CA           6.2300     1.2680    -0.4270 c3         1 DXY      -0.049300
      7 C            6.5060     2.2260    -1.6270 c          1 DXY       0.719000
      8 OXT          7.0600     3.2930    -1.4000 o          1 DXY      -0.741500
      9 O            6.0780     1.9170    -2.7320 o          1 DXY      -0.741500
     10 N            4.7930     0.9000    -0.3940 ns         1 DXY      -0.418900
     11 CAY          4.0050     0.8190     0.7400 c          1 DXY       0.593700
     12 OAF          4.4470     1.0980     1.8490 o          1 DXY      -0.638100
     13 CBB          2.5660     0.3780     0.5350 ca         1 DXY      -0.098600
     14 CAK          2.0500     0.0450    -0.7420 ca         1 DXY      -0.081500
     15 CAM          0.7120    -0.3600    -0.8910 ca         1 DXY      -0.117500
     16 CAJ          1.7020     0.2890     1.6490 ca         1 DXY      -0.081500
     17 CAL          0.3650    -0.1160     1.4960 ca         1 DXY      -0.117500
     18 CBC         -0.1420    -0.4420     0.2240 ca         1 DXY      -0.118300
     19 CBG         -1.5940    -0.8890     0.0460 c3         1 DXY       0.160600
     20 SAV         -1.8900    -2.4760     0.9620 ss         1 DXY      -0.496000
     21 CAA         -0.6750    -3.5790     0.1030 c3         1 DXY       0.055900
     22 CAQ         -2.6010     0.1980     0.4960 c3         1 DXY      -0.063400
     23 CAN         -4.0670    -0.0930     0.0940 c3         1 DXY      -0.081400
     24 CAP         -5.0420     1.0320     0.5050 c3         1 DXY       0.008800
     25 CBD         -6.4780     0.7360     0.1030 cc         1 DXY      -0.393400
     26 CBE         -6.8390     1.1190    -1.2670 c          1 DXY       0.592200
     27 OAG         -6.0970     1.6420    -2.0820 o          1 DXY      -0.566000
     28 NAU         -8.1120     0.8330    -1.5670 ns         1 DXY      -0.445400
     29 CAZ         -8.9500     0.2660    -0.7000 cc         1 DXY       0.742800
     30 NAB        -10.1760     0.0410    -1.1290 nv         1 DXY      -1.054200
     31 NAS         -8.7000    -0.0950     0.5230 nd         1 DXY      -0.777300
     32 CBA         -7.4160     0.1480     0.9230 cd         1 DXY       0.461600
     33 NAC         -7.2100    -0.2460     2.1770 nv         1 DXY      -0.946000
     34 H1G          6.0370    -1.3300     0.7370 hc         1 DXY       0.008700
     35 H2G          7.2630    -0.2860     1.6240 hc         1 DXY       0.008700
     36 H1B          8.1920     0.3680    -0.5730 hc         1 DXY       0.051200
     37 H2B          6.9370    -0.5510    -1.3910 hc         1 DXY       0.051200
     38 HA           6.4670     1.8310     0.4840 h1         1 DXY       0.056700
     39 HN           4.3460     0.6870    -1.2760 hn         1 DXY       0.299500
     40 HAK          2.6710     0.0920    -1.6330 ha         1 DXY       0.135500
     41 HAM          0.3400    -0.6110    -1.8820 ha         1 DXY       0.102500
     42 HAJ          2.0660     0.5330     2.6450 ha         1 DXY       0.135500
     43 HAL         -0.2750    -0.1820     2.3720 ha         1 DXY       0.102500
     44 HBG         -1.7680    -1.0850    -1.0210 h1         1 DXY       0.063700
     45 H1AA        -0.7540    -4.5990     0.5000 h1         1 DXY       0.059367
     46 H2AA        -0.8830    -3.5970    -0.9750 h1         1 DXY       0.059367
     47 H3AA         0.3470    -3.2110     0.2660 h1         1 DXY       0.059367
     48 H1AQ        -2.5390     0.3270     1.5840 hc         1 DXY       0.053200
     49 H2AQ        -2.3000     1.1530     0.0480 hc         1 DXY       0.053200
     50 H1AN        -4.1190    -0.2360    -0.9920 hc         1 DXY       0.046700
     51 H2AN        -4.3970    -1.0310     0.5560 hc         1 DXY       0.046700
     52 H1AP        -4.9710     1.1840     1.5880 hc         1 DXY       0.042700
     53 H2AP        -4.7060     1.9780     0.0620 hc         1 DXY       0.042700
     54 HNAU        -8.4370     1.0900    -2.4830 hn         1 DXY       0.318500
     55 H1AB       -10.2750    -0.1710    -2.1140 hn         1 DXY       0.493500
     56 H2AB       -10.7120    -0.5500    -0.5070 hn         1 DXY       0.493500
     57 H1AC        -6.4040     0.1150     2.6710 hn         1 DXY       0.486500
     58 H2AC        -8.0320    -0.4650     2.7270 hn         1 DXY       0.486500
@<TRIPOS>BOND
     1     1     2 1   
     2     2     3 1   
     3     2     4 1   
     4     4     5 1   
     5     4    34 1   
     6     4    35 1   
     7     5     6 1   
     8     5    36 1   
     9     5    37 1   
    10     6     7 1   
    11     6    10 1   
    12     6    38 1   
    13     7     8 1   
    14     7     9 1   
    15    10    11 1   
    16    10    39 1   
    17    11    12 2   
    18    11    13 1   
    19    13    14 ar  
    20    13    16 ar  
    21    14    15 ar  
    22    14    40 1   
    23    15    18 ar  
    24    15    41 1   
    25    16    17 ar  
    26    16    42 1   
    27    17    18 ar  
    28    17    43 1   
    29    18    19 1   
    30    19    20 1   
    31    19    22 1   
    32    19    44 1   
    33    20    21 1   
    34    21    45 1   
    35    21    46 1   
    36    21    47 1   
    37    22    23 1   
    38    22    48 1   
    39    22    49 1   
    40    23    24 1   
    41    23    50 1   
    42    23    51 1   
    43    24    25 1   
    44    24    52 1   
    45    24    53 1   
    46    25    26 1   
    47    25    32 2   
    48    26    27 2   
    49    26    28 1   
    50    28    29 1   
    51    28    54 1   
    52    29    30 1   
    53    29    31 2   
    54    30    55 1   
    55    30    56 1   
    56    31    32 1   
    57    32    33 1   
    58    33    57 1   
    59    33    58 1   
@<TRIPOS>SUBSTRUCTURE
     1 DXY         1 TEMP              0 ****  ****    0 ROOT
