@<TRIPOS>MOLECULE
DXY
   58    59     1     0     0
SMALL
bcc


@<TRIPOS>ATOM
      1 OE1          7.5050    -2.8970    -2.4490 o          1 DXY      -0.865300
      2 CD           7.5990    -1.6590    -2.3100 c          1 DXY       0.922600
      3 OE2          8.2580    -0.8850    -3.0330 o          1 DXY      -0.865300
      4 CG           6.8250    -1.0580    -1.1240 c3         1 DXY      -0.201400
      5 CB           6.8810     0.4560    -0.9930 c3         1 DXY      -0.055400
      6 CA           6.1620     0.9810     0.2520 c3         1 DXY      -0.049300
      7 C            6.3580     2.5110     0.4040 c          1 DXY       0.929600
      8 OXT          7.5260     2.8670     0.6590 o          1 DXY      -0.846800
      9 O            5.3670     3.2430     0.2420 o          1 DXY      -0.846800
     10 N            4.7700     0.5970     0.2030 ns         1 DXY      -0.485900
     11 CAY          3.9910     0.5570     1.2910 c          1 DXY       0.660700
     12 OAF          4.4070     0.7780     2.4230 o          1 DXY      -0.638100
     13 CBB          2.5630     0.1760     1.0640 ca         1 DXY      -0.098600
     14 CAK          2.1550    -0.6080    -0.0100 ca         1 DXY      -0.099500
     15 CAM          0.8240    -0.9790    -0.1460 ca         1 DXY      -0.135500
     16 CAJ          1.6090     0.5700     2.0030 ca         1 DXY      -0.099500
     17 CAL          0.2830     0.2060     1.8600 ca         1 DXY      -0.135500
     18 CBC         -0.1290    -0.5760     0.7810 ca         1 DXY      -0.118300
     19 CBG         -1.5670    -0.9840     0.6140 c3         1 DXY       0.112700
     20 SAV         -2.1610    -1.9190     2.0690 ss         1 DXY      -0.400200
     21 CAA         -0.9690    -3.2730     2.0960 c3         1 DXY       0.008000
     22 CAQ         -2.4850     0.2210     0.3920 c3         1 DXY      -0.063400
     23 CAN         -3.9200    -0.1440     0.0340 c3         1 DXY      -0.081400
     24 CAP         -4.7750     1.0940    -0.2500 c3         1 DXY       0.008800
     25 CBD         -6.1970     0.7620    -0.5880 cc         1 DXY      -0.393400
     26 CBE         -6.5720     0.6310    -1.9480 c          1 DXY       0.734700
     27 OAG         -5.8550     0.8000    -2.9350 o          1 DXY      -0.641500
     28 NAU         -7.9080     0.2730    -2.1540 ns         1 DXY      -0.512400
     29 CAZ         -8.7800     0.0480    -1.1490 cc         1 DXY       0.742800
     30 NAB        -10.0470    -0.2540    -1.4750 nv         1 DXY      -0.943800
     31 NAS         -8.4380     0.1460     0.1070 nd         1 DXY      -0.777300
     32 CBA         -7.1580     0.4940     0.3810 cd         1 DXY       0.461600
     33 NAC         -6.8680     0.5270     1.7010 nv         1 DXY      -0.835600
     34 H1G          5.7870    -1.3980    -1.1920 hc         1 DXY       0.008700
     35 H2G          7.2090    -1.5130    -0.2030 hc         1 DXY       0.008700
     36 H1B          7.9190     0.7850    -0.9410 hc         1 DXY       0.051200
     37 H2B          6.4560     0.9300    -1.8850 hc         1 DXY       0.051200
     38 HA           6.6080     0.4980     1.1270 h1         1 DXY       0.056700
     39 HN           4.3250     0.6160    -0.7000 hn         1 DXY       0.299500
     40 HAK          2.8700    -0.9710    -0.7380 ha         1 DXY       0.153500
     41 HAM          0.5300    -1.6040    -0.9810 ha         1 DXY       0.120500
     42 HAJ          1.9100     1.1650     2.8560 ha         1 DXY       0.153500
     43 HAL         -0.4360     0.5140     2.6090 ha         1 DXY       0.120500
     44 HBG         -1.6460    -1.6440    -0.2550 h1         1 DXY       0.063700
     45 H1AA        -1.2500    -3.9350     2.9140 h1         1 DXY       0.059367
     46 H2AA        -0.9960    -3.8410     1.1670 h1         1 DXY       0.059367
     47 H3AA         0.0430    -2.9120     2.2720 h1         1 DXY       0.059367
     48 H1AQ        -2.4700     0.8640     1.2780 hc         1 DXY       0.053200
     49 H2AQ        -2.0500     0.8110    -0.4200 hc         1 DXY       0.053200
     50 H1AN        -3.9250    -0.7910    -0.8480 hc         1 DXY       0.046700
     51 H2AN        -4.3760    -0.7230     0.8410 hc         1 DXY       0.046700
     52 H1AP        -4.7230     1.7710     0.6100 hc         1 DXY       0.042700
     53 H2AP        -4.3310     1.6520    -1.0770 hc         1 DXY       0.042700
     54 HNAU        -8.2110     0.1810    -3.1140 hn         1 DXY       0.318500
     55 H1AB       -10.2840    -0.5380    -2.4100 hn         1 DXY       0.438300
     56 H2AB       -10.6500    -0.5820    -0.7400 hn         1 DXY       0.438300
     57 H1AC        -6.0270     0.9740     2.0220 hn         1 DXY       0.431300
     58 H2AC        -7.6370     0.5270     2.3480 hn         1 DXY       0.431300
@<TRIPOS>BOND
     1     1     2 1   
     2     2     3 1   
     3     2     4 1   
     4     4     5 1   
     5     4    34 1   
     6     4    35 1   
     7     5     6 1   
     8     5    36 1   
     9     5    37 1   
    10     6     7 1   
    11     6    10 1   
    12     6    38 1   
    13     7     8 1   
    14     7     9 1   
    15    10    11 1   
    16    10    39 1   
    17    11    12 2   
    18    11    13 1   
    19    13    14 ar  
    20    13    16 ar  
    21    14    15 ar  
    22    14    40 1   
    23    15    18 ar  
    24    15    41 1   
    25    16    17 ar  
    26    16    42 1   
    27    17    18 ar  
    28    17    43 1   
    29    18    19 1   
    30    19    20 1   
    31    19    22 1   
    32    19    44 1   
    33    20    21 1   
    34    21    45 1   
    35    21    46 1   
    36    21    47 1   
    37    22    23 1   
    38    22    48 1   
    39    22    49 1   
    40    23    24 1   
    41    23    50 1   
    42    23    51 1   
    43    24    25 1   
    44    24    52 1   
    45    24    53 1   
    46    25    26 1   
    47    25    32 2   
    48    26    27 2   
    49    26    28 1   
    50    28    29 1   
    51    28    54 1   
    52    29    30 1   
    53    29    31 2   
    54    30    55 1   
    55    30    56 1   
    56    31    32 1   
    57    32    33 1   
    58    33    57 1   
    59    33    58 1   
@<TRIPOS>SUBSTRUCTURE
     1 DXY         1 TEMP              0 ****  ****    0 ROOT
