@<TRIPOS>MOLECULE
DXZ
   58    59     1     0     0
SMALL
No Charge or Current Charge


@<TRIPOS>ATOM
      1 OE1         -7.6530     3.0780     0.5450 o          1 DXZ      -0.761000
      2 CD          -8.0430     1.9690     0.8790 c          1 DXZ       0.713000
      3 OE2         -9.1990     1.7300     1.1930 o          1 DXZ      -0.761000
      4 CG          -7.0410     0.8010     0.8390 c3         1 DXZ      -0.201400
      5 CB          -7.0520     0.1360    -0.5630 c3         1 DXZ      -0.053400
      6 CA          -6.1610    -1.1300    -0.6890 c3         1 DXZ      -0.053300
      7 C           -6.3490    -1.8140    -2.0770 c          1 DXZ       0.717000
      8 OXT         -6.9400    -2.8840    -2.1180 o          1 DXZ      -0.741500
      9 O           -5.8200    -1.3040    -3.0560 o          1 DXZ      -0.741500
     10 N           -4.7250    -0.8310    -0.4620 ns         1 DXZ      -0.414900
     11 CAY         -4.0390    -1.0110     0.7240 c          1 DXZ       0.594700
     12 OAF         -4.5820    -1.4910     1.7130 o          1 DXZ      -0.643100
     13 CBB         -2.5790    -0.5930     0.7330 ca         1 DXZ      -0.095600
     14 CAK         -1.8140    -0.7620     1.9100 ca         1 DXZ      -0.080000
     15 CAM         -0.4610    -0.3860     1.9530 ca         1 DXZ      -0.119500
     16 CAJ         -1.9450    -0.0300    -0.4020 ca         1 DXZ      -0.080000
     17 CAL         -0.5910     0.3450    -0.3540 ca         1 DXZ      -0.119500
     18 CBC          0.1630     0.1690     0.8210 ca         1 DXZ      -0.117300
     19 CBG          1.6350     0.5790     0.8820 c3         1 DXZ       0.151600
     20 SAV          1.7980     2.4090     0.6280 ss         1 DXZ      -0.463000
     21 CAA          0.8150     3.0270     2.0690 c3         1 DXZ       0.047900
     22 CAQ          2.5010    -0.1950    -0.1410 c3         1 DXZ      -0.064400
     23 CAN          4.0260    -0.0170     0.0590 c3         1 DXZ      -0.078400
     24 CAP          4.8680    -0.8450    -0.9370 c3         1 DXZ       0.003800
     25 CBD          6.3640    -0.6750    -0.7210 cc         1 DXZ      -0.393400
     26 CBE          6.9740     0.4700    -1.4060 c          1 DXZ       0.593200
     27 OAG          6.3890     1.2770    -2.1100 o          1 DXZ      -0.564000
     28 NAU          8.2910     0.5650    -1.1840 ns         1 DXZ      -0.446400
     29 CAZ          8.9590    -0.2940    -0.4150 cc         1 DXZ       0.743800
     30 NAB         10.2530    -0.0820    -0.2860 nv         1 DXZ      -1.056200
     31 NAS          8.4830    -1.3210     0.2230 nd         1 DXZ      -0.778300
     32 CBA          7.1410    -1.5080     0.0530 cd         1 DXZ       0.465600
     33 NAC          6.7040    -2.5640     0.7310 nv         1 DXZ      -0.957000
     34 H1G         -6.0200     1.1700     0.9940 hc         1 DXZ       0.010200
     35 H2G         -7.3390     0.0150     1.5450 hc         1 DXZ       0.010200
     36 H1B         -8.0840    -0.1450    -0.8090 hc         1 DXZ       0.049700
     37 H2B         -6.7430     0.8730    -1.3150 hc         1 DXZ       0.049700
     38 HA          -6.4890    -1.8560     0.0650 h1         1 DXZ       0.059700
     39 HN          -4.1980    -0.4610    -1.2420 hn         1 DXZ       0.297500
     40 HAK         -2.2700    -1.1900     2.8010 ha         1 DXZ       0.133500
     41 HAM          0.1020    -0.5280     2.8730 ha         1 DXZ       0.103000
     42 HAJ         -2.4860     0.1280    -1.3310 ha         1 DXZ       0.133500
     43 HAL         -0.1290     0.7810    -1.2370 ha         1 DXZ       0.103000
     44 HBG          2.0170     0.3510     1.8860 h1         1 DXZ       0.052700
     45 H1AA         0.8490     4.1230     2.0980 h1         1 DXZ       0.058033
     46 H2AA        -0.2310     2.7050     1.9760 h1         1 DXZ       0.058033
     47 H3AA         1.2320     2.6300     3.0030 h1         1 DXZ       0.058033
     48 H1AQ         2.2610    -1.2630    -0.0580 hc         1 DXZ       0.056700
     49 H2AQ         2.2290     0.1110    -1.1580 hc         1 DXZ       0.056700
     50 H1AN         4.2880     1.0420    -0.0490 hc         1 DXZ       0.040700
     51 H2AN         4.2920    -0.3080     1.0820 hc         1 DXZ       0.040700
     52 H1AP         4.5890    -1.9020    -0.8480 hc         1 DXZ       0.048200
     53 H2AP         4.5920    -0.5630    -1.9610 hc         1 DXZ       0.048200
     54 HNAU         8.7730     1.3410    -1.6040 hn         1 DXZ       0.317500
     55 H1AB        10.7230     0.3260    -1.0840 hn         1 DXZ       0.494000
     56 H2AB        10.7400    -0.8550     0.1490 hn         1 DXZ       0.494000
     57 H1AC         5.7140    -2.6200     0.9370 hn         1 DXZ       0.490500
     58 H2AC         7.3360    -2.9480     1.4220 hn         1 DXZ       0.490500
@<TRIPOS>BOND
     1     1     2 1   
     2     2     3 1   
     3     2     4 1   
     4     4     5 1   
     5     4    34 1   
     6     4    35 1   
     7     5     6 1   
     8     5    36 1   
     9     5    37 1   
    10     6     7 1   
    11     6    10 1   
    12     6    38 1   
    13     7     8 1   
    14     7     9 1   
    15    10    11 1   
    16    10    39 1   
    17    11    12 2   
    18    11    13 1   
    19    13    14 ar  
    20    13    16 ar  
    21    14    15 ar  
    22    14    40 1   
    23    15    18 ar  
    24    15    41 1   
    25    16    17 ar  
    26    16    42 1   
    27    17    18 ar  
    28    17    43 1   
    29    18    19 1   
    30    19    20 1   
    31    19    22 1   
    32    19    44 1   
    33    20    21 1   
    34    21    45 1   
    35    21    46 1   
    36    21    47 1   
    37    22    23 1   
    38    22    48 1   
    39    22    49 1   
    40    23    24 1   
    41    23    50 1   
    42    23    51 1   
    43    24    25 1   
    44    24    52 1   
    45    24    53 1   
    46    25    26 1   
    47    25    32 2   
    48    26    27 2   
    49    26    28 1   
    50    28    29 1   
    51    28    54 1   
    52    29    30 1   
    53    29    31 2   
    54    30    55 1   
    55    30    56 1   
    56    31    32 1   
    57    32    33 1   
    58    33    57 1   
    59    33    58 1   
@<TRIPOS>SUBSTRUCTURE
     1 DXZ         1 TEMP              0 ****  ****    0 ROOT
