@<TRIPOS>MOLECULE
DXZ
   58    59     1     0     0
SMALL
abcg2


@<TRIPOS>ATOM
      1 OE1         -8.1800     2.1530    -2.2210 o          1 DXZ      -0.761000
      2 CD          -7.7660     2.3900    -1.0690 c          1 DXZ       0.713000
      3 OE2         -7.9420     3.4460    -0.4240 o          1 DXZ      -0.761000
      4 CG          -6.9560     1.2950    -0.3540 c3         1 DXZ      -0.201400
      5 CB          -6.7910    -0.0120    -1.1110 c3         1 DXZ      -0.053400
      6 CA          -6.0430    -1.0780    -0.3110 c3         1 DXZ      -0.053300
      7 C           -6.0860    -2.4560    -1.0240 c          1 DXZ       0.717000
      8 OXT         -7.2200    -2.9670    -1.1080 o          1 DXZ      -0.741500
      9 O           -5.0170    -2.9200    -1.4550 o          1 DXZ      -0.741500
     10 N           -4.6930    -0.6350    -0.0460 ns         1 DXZ      -0.414900
     11 CAY         -3.9570    -1.1330     0.9560 c          1 DXZ       0.594700
     12 OAF         -4.4130    -1.8940     1.8030 o          1 DXZ      -0.643100
     13 CBB         -2.5270    -0.6920     1.0260 ca         1 DXZ      -0.095600
     14 CAK         -1.6620    -1.4060     1.8480 ca         1 DXZ      -0.080000
     15 CAM         -0.3290    -1.0410     1.9600 ca         1 DXZ      -0.119500
     16 CAJ         -2.0260     0.4120     0.3350 ca         1 DXZ      -0.080000
     17 CAL         -0.6940     0.7750     0.4490 ca         1 DXZ      -0.119500
     18 CBC          0.1750     0.0500     1.2590 ca         1 DXZ      -0.117300
     19 CBG          1.6410     0.3830     1.3530 c3         1 DXZ       0.151600
     20 SAV          1.9370     2.1600     1.6330 ss         1 DXZ      -0.463000
     21 CAA          1.0590     2.3990     3.1920 c3         1 DXZ       0.047900
     22 CAQ          2.3840    -0.0510     0.0850 c3         1 DXZ      -0.064400
     23 CAN          3.8990     0.0770     0.1710 c3         1 DXZ      -0.078400
     24 CAP          4.5970    -0.5030    -1.0610 c3         1 DXZ       0.003800
     25 CBD          6.0920    -0.3960    -0.9980 cc         1 DXZ      -0.393400
     26 CBE          6.7240     0.7470    -1.5460 c          1 DXZ       0.593200
     27 OAG          6.1800     1.6970    -2.1110 o          1 DXZ      -0.564000
     28 NAU          8.1160     0.7640    -1.4130 ns         1 DXZ      -0.446400
     29 CAZ          8.8150    -0.2140    -0.7980 cc         1 DXZ       0.743800
     30 NAB         10.1450    -0.0620    -0.6970 nv         1 DXZ      -1.056200
     31 NAS          8.2400    -1.2630    -0.2770 nd         1 DXZ      -0.778300
     32 CBA          6.8900    -1.3460    -0.3710 cd         1 DXZ       0.465600
     33 NAC          6.3690    -2.4640     0.1790 nv         1 DXZ      -0.957000
     34 H1G         -5.9750     1.7130    -0.0990 hc         1 DXZ       0.010200
     35 H2G         -7.4310     1.0930     0.6140 hc         1 DXZ       0.010200
     36 H1B         -7.7710    -0.4170    -1.3680 hc         1 DXZ       0.049700
     37 H2B         -6.2770     0.1620    -2.0630 hc         1 DXZ       0.049700
     38 HA          -6.5480    -1.1920     0.6520 h1         1 DXZ       0.059700
     39 HN          -4.2160    -0.1850    -0.8110 hn         1 DXZ       0.297500
     40 HAK         -2.0310    -2.2560     2.4050 ha         1 DXZ       0.133500
     41 HAM          0.3280    -1.6130     2.6040 ha         1 DXZ       0.103000
     42 HAJ         -2.6690     1.0230    -0.2850 ha         1 DXZ       0.133500
     43 HAL         -0.3340     1.6470    -0.0820 ha         1 DXZ       0.103000
     44 HBG          2.0670    -0.1610     2.2020 h1         1 DXZ       0.052700
     45 H1AA         1.1940     3.4400     3.4820 h1         1 DXZ       0.058033
     46 H2AA        -0.0060     2.2010     3.0870 h1         1 DXZ       0.058033
     47 H3AA         1.4700     1.7640     3.9760 h1         1 DXZ       0.058033
     48 H1AQ         2.1240    -1.0980    -0.0980 hc         1 DXZ       0.056700
     49 H2AQ         2.0050     0.5110    -0.7750 hc         1 DXZ       0.056700
     50 H1AN         4.1910     1.1250     0.2770 hc         1 DXZ       0.040700
     51 H2AN         4.2550    -0.4310     1.0750 hc         1 DXZ       0.040700
     52 H1AP         4.2910    -1.5460    -1.1990 hc         1 DXZ       0.048200
     53 H2AP         4.2370     0.0210    -1.9490 hc         1 DXZ       0.048200
     54 HNAU         8.6000     1.5630    -1.7990 hn         1 DXZ       0.317500
     55 H1AB        10.6300     0.6250    -1.2490 hn         1 DXZ       0.494000
     56 H2AB        10.6830    -0.8540    -0.3880 hn         1 DXZ       0.494000
     57 H1AC         5.3810    -2.5420     0.3450 hn         1 DXZ       0.490500
     58 H2AC         6.9630    -3.0290     0.7600 hn         1 DXZ       0.490500
@<TRIPOS>BOND
     1     1     2 1   
     2     2     3 1   
     3     2     4 1   
     4     4     5 1   
     5     4    34 1   
     6     4    35 1   
     7     5     6 1   
     8     5    36 1   
     9     5    37 1   
    10     6     7 1   
    11     6    10 1   
    12     6    38 1   
    13     7     8 1   
    14     7     9 1   
    15    10    11 1   
    16    10    39 1   
    17    11    12 2   
    18    11    13 1   
    19    13    14 ar  
    20    13    16 ar  
    21    14    15 ar  
    22    14    40 1   
    23    15    18 ar  
    24    15    41 1   
    25    16    17 ar  
    26    16    42 1   
    27    17    18 ar  
    28    17    43 1   
    29    18    19 1   
    30    19    20 1   
    31    19    22 1   
    32    19    44 1   
    33    20    21 1   
    34    21    45 1   
    35    21    46 1   
    36    21    47 1   
    37    22    23 1   
    38    22    48 1   
    39    22    49 1   
    40    23    24 1   
    41    23    50 1   
    42    23    51 1   
    43    24    25 1   
    44    24    52 1   
    45    24    53 1   
    46    25    26 1   
    47    25    32 2   
    48    26    27 2   
    49    26    28 1   
    50    28    29 1   
    51    28    54 1   
    52    29    30 1   
    53    29    31 2   
    54    30    55 1   
    55    30    56 1   
    56    31    32 1   
    57    32    33 1   
    58    33    57 1   
    59    33    58 1   
@<TRIPOS>SUBSTRUCTURE
     1 DXZ         1 TEMP              0 ****  ****    0 ROOT
