@<TRIPOS>MOLECULE
DY1
   56    59     1     0     0
SMALL
abcg2


@<TRIPOS>ATOM
      1 C2          32.7010    -6.8140    11.6590 ca         1 DY1      -0.092000
      2 C3          31.7850    -6.3180    12.5870 ca         1 DY1      -0.234500
      3 C5          30.6500    -5.1810    10.7450 ca         1 DY1      -0.065800
      4 C7          28.9720    -4.1240    11.8010 cc         1 DY1       0.022700
      5 C9          28.4880    -4.8300    14.9630 c3         1 DY1      -0.109100
      6 C10         30.0420    -2.8860    14.3060 ca         1 DY1      -0.063300
      7 C11         30.9950    -2.3230    13.4520 ca         1 DY1      -0.091500
      8 C12         31.3410    -0.9860    13.5530 ca         1 DY1      -0.062500
      9 C13         30.7340    -0.1860    14.5200 ca         1 DY1      -0.195300
     10 C15         29.4490    -2.0750    15.2700 ca         1 DY1      -0.091500
     11 C20         27.5930    -2.3110    10.8900 c6         1 DY1      -0.061400
     12 C21         27.6710    -3.0000     9.5240 c6         1 DY1      -0.077400
     13 C22         29.0200    -3.7000     9.3040 c6         1 DY1       0.005800
     14 C1          32.5720    -6.4930    10.3150 ca         1 DY1       0.110000
     15 S           31.9610    -6.8490    14.2790 sy         1 DY1       1.073500
     16 O2          32.5930    -5.7870    15.0470 o          1 DY1      -0.531000
     17 O3          30.6670    -7.3240    14.7400 o          1 DY1      -0.531000
     18 C23         33.0660    -8.2380    14.2700 c3         1 DY1      -0.344100
     19 C4          30.7580    -5.4630    12.1440 ca         1 DY1       0.033800
     20 N           29.7170    -4.7960    12.7810 na         1 DY1      -0.087700
     21 C8          29.7230    -4.3720    14.1950 c3         1 DY1       0.143600
     22 C14         29.7910    -0.7330    15.3810 ca         1 DY1      -0.062500
     23 C16         31.1430     1.2470    14.6570 c3         1 DY1       0.343300
     24 F2          31.4270     1.8220    13.4670 f          1 DY1      -0.119667
     25 F1          30.1930     2.0070    15.2430 f          1 DY1      -0.119667
     26 F           32.2640     1.3880    15.4170 f          1 DY1      -0.119667
     27 C17         27.7510    -3.3040    12.0590 c6         1 DY1      -0.006500
     28 O1          24.1730    -3.6030    12.3080 o          1 DY1      -0.736000
     29 O           25.5340    -2.6840    13.8340 o          1 DY1      -0.736000
     30 C6          29.5140    -4.3370    10.5660 cd         1 DY1      -0.174400
     31 C           31.5610    -5.7020     9.8240 ca         1 DY1      -0.064000
     32 H1          33.5110    -7.4630    11.9510 ha         1 DY1       0.119000
     33 H2          28.6740    -4.7470    16.0350 hc         1 DY1       0.069367
     34 H3          27.6030    -4.2440    14.7250 hc         1 DY1       0.069367
     35 H4          28.2970    -5.8770    14.7370 hc         1 DY1       0.069367
     36 H5          31.4690    -2.9320    12.6940 ha         1 DY1       0.132000
     37 H6          32.0770    -0.5670    12.8800 ha         1 DY1       0.125000
     38 H7          28.7050    -2.4780    15.9410 ha         1 DY1       0.132000
     39 H8          26.2000    -4.6070    11.2710 hc         1 DY1       0.032200
     40 H9          26.7110    -5.0160    12.8930 hc         1 DY1       0.032200
     41 H10         28.3810    -1.5550    10.9610 hc         1 DY1       0.050200
     42 H11         26.6390    -1.7890    10.9930 hc         1 DY1       0.050200
     43 H12         27.5030    -2.2700     8.7300 hc         1 DY1       0.043200
     44 H13         26.8660    -3.7350     9.4440 hc         1 DY1       0.043200
     45 H14         28.9350    -4.4380     8.5020 hc         1 DY1       0.030700
     46 H15         29.7650    -2.9700     8.9650 hc         1 DY1       0.030700
     47 H16         33.0630    -8.5680    15.3100 h1         1 DY1       0.101367
     48 H17         32.6750    -9.0190    13.6230 h1         1 DY1       0.101367
     49 H18         34.0660    -7.9260    13.9800 h1         1 DY1       0.101367
     50 H19         30.5700    -4.8700    14.6480 h1         1 DY1       0.053700
     51 H20         29.3150    -0.1180    16.1320 ha         1 DY1       0.125000
     52 H21         27.8690    -2.7330    12.9790 hc         1 DY1       0.089700
     53 H23         31.4820    -5.4950     8.7650 ha         1 DY1       0.133000
     54 C18         26.4920    -4.1780    12.2290 c3         1 DY1      -0.200400
     55 F3          33.4900    -7.0090     9.4520 f          1 DY1      -0.199000
     56 C19         25.2990    -3.4150    12.8360 c          1 DY1       0.706000
@<TRIPOS>BOND
     1     1     2 ar  
     2     1    14 ar  
     3     1    32 1   
     4     2    15 1   
     5     2    19 ar  
     6     3    19 ar  
     7     3    30 1   
     8     3    31 ar  
     9     4    20 1   
    10     4    27 1   
    11     4    30 2   
    12     5    21 1   
    13     5    33 1   
    14     5    34 1   
    15     5    35 1   
    16     6     7 ar  
    17     6    10 ar  
    18     6    21 1   
    19     7     8 ar  
    20     7    36 1   
    21     8     9 ar  
    22     8    37 1   
    23     9    22 ar  
    24     9    23 1   
    25    10    22 ar  
    26    10    38 1   
    27    11    12 1   
    28    11    27 1   
    29    11    41 1   
    30    11    42 1   
    31    12    13 1   
    32    12    43 1   
    33    12    44 1   
    34    13    30 1   
    35    13    45 1   
    36    13    46 1   
    37    14    31 ar  
    38    14    55 1   
    39    15    16 2   
    40    15    17 2   
    41    15    18 1   
    42    18    47 1   
    43    18    48 1   
    44    18    49 1   
    45    19    20 1   
    46    20    21 1   
    47    21    50 1   
    48    22    51 1   
    49    23    24 1   
    50    23    25 1   
    51    23    26 1   
    52    27    52 1   
    53    27    54 1   
    54    28    56 1   
    55    29    56 1   
    56    31    53 1   
    57    39    54 1   
    58    40    54 1   
    59    54    56 1   
@<TRIPOS>SUBSTRUCTURE
     1 DY1         1 TEMP              0 ****  ****    0 ROOT
