@<TRIPOS>MOLECULE
DY1
   56    59     1     0     0
SMALL
No Charge or Current Charge


@<TRIPOS>ATOM
      1 C2          32.8270    -6.7230    11.6740 ca         1 DY1      -0.092000
      2 C3          31.8410    -6.3540    12.6330 ca         1 DY1      -0.234500
      3 C5          30.7570    -5.0780    10.8780 ca         1 DY1      -0.065800
      4 C7          28.9050    -4.1880    11.9210 cc         1 DY1       0.022700
      5 C9          28.7220    -4.7800    15.1730 c3         1 DY1      -0.109100
      6 C10         30.1720    -2.7830    14.3340 ca         1 DY1      -0.063300
      7 C11         31.1610    -2.2340    13.4880 ca         1 DY1      -0.091500
      8 C12         31.4410    -0.8580    13.4960 ca         1 DY1      -0.062500
      9 C13         30.7400     0.0110    14.3550 ca         1 DY1      -0.195300
     10 C15         29.4890    -1.9090    15.2120 ca         1 DY1      -0.091500
     11 C20         27.4630    -2.3660    10.9950 c6         1 DY1      -0.061400
     12 C21         27.6530    -3.0150     9.6000 c6         1 DY1      -0.077400
     13 C22         29.0710    -3.6200     9.4420 c6         1 DY1       0.005800
     14 C1          32.7600    -6.2700    10.3420 ca         1 DY1       0.110000
     15 S           31.9020    -7.1310    14.2790 sy         1 DY1       1.073500
     16 O2          32.8160    -6.3430    15.1160 o          1 DY1      -0.531000
     17 O3          30.5320    -7.4010    14.7250 o          1 DY1      -0.531000
     18 C23         32.6900    -8.7290    14.0450 c3         1 DY1      -0.344100
     19 C4          30.8270    -5.4420    12.2060 ca         1 DY1       0.033800
     20 N           29.7660    -4.7900    12.8740 na         1 DY1      -0.087700
     21 C8          29.8920    -4.3010    14.2770 c3         1 DY1       0.143600
     22 C14         29.7690    -0.5320    15.2210 ca         1 DY1      -0.062500
     23 C16         31.0500     1.5120    14.3710 c3         1 DY1       0.343300
     24 F2          31.4670     1.9640    13.1660 f          1 DY1      -0.119667
     25 F1          29.9720     2.2570    14.7090 f          1 DY1      -0.119667
     26 F           32.0250     1.8020    15.2610 f          1 DY1      -0.119667
     27 C17         27.6290    -3.3990    12.1490 c6         1 DY1      -0.006500
     28 O1          24.3450    -3.3060    11.8740 o          1 DY1      -0.736000
     29 O           24.9680    -3.4580    13.9280 o          1 DY1      -0.736000
     30 C6          29.5610    -4.3020    10.7050 cd         1 DY1      -0.174400
     31 C           31.7000    -5.4590     9.9200 ca         1 DY1      -0.064000
     32 H1          33.6490    -7.3800    11.9410 ha         1 DY1       0.119000
     33 H2          28.9720    -4.6480    16.2320 hc         1 DY1       0.069367
     34 H3          27.8010    -4.2260    14.9690 hc         1 DY1       0.069367
     35 H4          28.5100    -5.8420    15.0100 hc         1 DY1       0.069367
     36 H5          31.7240    -2.8760    12.8140 ha         1 DY1       0.132000
     37 H6          32.2110    -0.4730    12.8300 ha         1 DY1       0.125000
     38 H7          28.7310    -2.2770    15.8980 ha         1 DY1       0.132000
     39 H8          26.2660    -4.8780    11.3350 hc         1 DY1       0.032200
     40 H9          26.7080    -5.0900    13.0850 hc         1 DY1       0.032200
     41 H10         28.2080    -1.5680    11.1200 hc         1 DY1       0.050200
     42 H11         26.4850    -1.8710    11.0520 hc         1 DY1       0.050200
     43 H12         27.4840    -2.2680     8.8130 hc         1 DY1       0.043200
     44 H13         26.8980    -3.7960     9.4410 hc         1 DY1       0.043200
     45 H14         29.0780    -4.3210     8.5960 hc         1 DY1       0.030700
     46 H15         29.7720    -2.8170     9.1760 hc         1 DY1       0.030700
     47 H16         32.6130    -9.2790    14.9880 h1         1 DY1       0.101367
     48 H17         32.1610    -9.2590    13.2470 h1         1 DY1       0.101367
     49 H18         33.7420    -8.5720    13.7880 h1         1 DY1       0.101367
     50 H19         30.7930    -4.7430    14.7020 h1         1 DY1       0.053700
     51 H20         29.2250     0.1120    15.9090 ha         1 DY1       0.125000
     52 H21         27.6930    -2.8340    13.0870 hc         1 DY1       0.089700
     53 H23         31.6160    -5.1400     8.8850 ha         1 DY1       0.133000
     54 C18         26.4200    -4.3830    12.3000 c3         1 DY1      -0.200400
     55 F3          33.7040    -6.6560     9.4550 f          1 DY1      -0.199000
     56 C19         25.1320    -3.6660    12.7360 c          1 DY1       0.706000
@<TRIPOS>BOND
     1     1     2 ar  
     2     1    14 ar  
     3     1    32 1   
     4     2    15 1   
     5     2    19 ar  
     6     3    19 ar  
     7     3    30 1   
     8     3    31 ar  
     9     4    20 1   
    10     4    27 1   
    11     4    30 2   
    12     5    21 1   
    13     5    33 1   
    14     5    34 1   
    15     5    35 1   
    16     6     7 ar  
    17     6    10 ar  
    18     6    21 1   
    19     7     8 ar  
    20     7    36 1   
    21     8     9 ar  
    22     8    37 1   
    23     9    22 ar  
    24     9    23 1   
    25    10    22 ar  
    26    10    38 1   
    27    11    12 1   
    28    11    27 1   
    29    11    41 1   
    30    11    42 1   
    31    12    13 1   
    32    12    43 1   
    33    12    44 1   
    34    13    30 1   
    35    13    45 1   
    36    13    46 1   
    37    14    31 ar  
    38    14    55 1   
    39    15    16 2   
    40    15    17 2   
    41    15    18 1   
    42    18    47 1   
    43    18    48 1   
    44    18    49 1   
    45    19    20 1   
    46    20    21 1   
    47    21    50 1   
    48    22    51 1   
    49    23    24 1   
    50    23    25 1   
    51    23    26 1   
    52    27    52 1   
    53    27    54 1   
    54    28    56 1   
    55    29    56 1   
    56    31    53 1   
    57    39    54 1   
    58    40    54 1   
    59    54    56 1   
@<TRIPOS>SUBSTRUCTURE
     1 DY1         1 TEMP              0 ****  ****    0 ROOT
