@<TRIPOS>MOLECULE
DY2
   48    51     1     0     0
SMALL
No Charge or Current Charge


@<TRIPOS>ATOM
      1 C12          1.0890     3.3120    -0.7270 ca         1 DY2       0.356900
      2 C15         -0.1090     1.2920    -0.1690 ca         1 DY2      -0.027000
      3 C16         -2.6380     1.2330    -0.4510 cp         1 DY2      -0.016000
      4 C20         -4.9160     0.8590    -1.2930 ca         1 DY2      -0.098000
      5 C19         -5.1570    -0.0970    -0.2940 ca         1 DY2       0.092100
      6 C18         -4.1350    -0.3930     0.6350 ca         1 DY2      -0.098000
      7 C11          6.3330    -4.6140    -1.2170 c3         1 DY2       0.148900
      8 C6           4.5940     1.2150     1.1590 ca         1 DY2       0.207100
      9 C5           4.7780    -0.0390     0.5440 ca         1 DY2      -0.139000
     10 C3           3.9030    -1.8110    -0.8640 ca         1 DY2      -0.150000
     11 C2           5.0800    -2.5520    -0.6950 ca         1 DY2       0.162100
     12 N1          -0.0460     3.9530    -1.0840 nb         1 DY2      -0.668000
     13 C8           3.3880     1.9170     0.9600 ca         1 DY2      -0.248300
     14 C9           3.1410     3.2540     1.6750 c3         1 DY2      -0.042800
     15 C10          1.1230     1.9850    -0.2480 cp         1 DY2      -0.197500
     16 N            2.5920     0.1190    -0.4530 nb         1 DY2      -0.692000
     17 C            5.9680    -0.7800     0.7190 ca         1 DY2      -0.027000
     18 O            5.5800     1.7470     1.9410 oh         1 DY2      -0.528100
     19 C1           6.1180    -2.0320     0.1010 ca         1 DY2      -0.196000
     20 C13         -1.2130     3.2750    -0.9850 ca         1 DY2       0.354900
     21 C14         -1.3170     1.9340    -0.5340 cp         1 DY2      -0.100000
     22 C17         -2.8950     0.2660     0.5530 ca         1 DY2      -0.092500
     23 C21         -3.6770     1.5170    -1.3720 ca         1 DY2      -0.092500
     24 C22         -6.8050    -1.7020     0.6770 c3         1 DY2       0.515000
     25 C4           3.7380    -0.5580    -0.2560 ca         1 DY2       0.334000
     26 C7           2.4140     1.3310     0.1040 cp         1 DY2       0.468500
     27 F           -8.0720    -2.1060     0.4380 f          1 DY2      -0.108667
     28 F1          -6.7750    -1.2330     1.9460 f          1 DY2      -0.108667
     29 F2          -6.0240    -2.8050     0.6210 f          1 DY2      -0.108667
     30 O2          -6.4020    -0.7020    -0.2810 os         1 DY2      -0.403100
     31 H1           2.0110     3.8820    -0.8390 h4         1 DY2       0.024100
     32 H2          -0.1190     0.2580     0.1670 ha         1 DY2       0.137000
     33 H3          -5.6970     1.0900    -2.0140 ha         1 DY2       0.136000
     34 H4          -4.2770    -1.1220     1.4260 ha         1 DY2       0.136000
     35 H5           6.5160    -4.8930    -0.1710 h1         1 DY2       0.043033
     36 H6           6.1930    -5.5370    -1.7940 h1         1 DY2       0.043033
     37 H7           7.2210    -4.1010    -1.6070 h1         1 DY2       0.043033
     38 H8           3.1050    -2.2140    -1.4800 ha         1 DY2       0.147000
     39 H9           3.5840     4.0900     1.1180 hc         1 DY2       0.044367
     40 H10          2.0720     3.4630     1.7990 hc         1 DY2       0.044367
     41 H11          3.5600     3.2640     2.6880 hc         1 DY2       0.044367
     42 H12          6.7800    -0.3960     1.3330 ha         1 DY2       0.128000
     43 H13          5.2990     2.6420     2.2200 ho         1 DY2       0.478000
     44 H14          7.0440    -2.5790     0.2540 ha         1 DY2       0.120000
     45 H15         -2.1040     3.8320    -1.2700 h4         1 DY2       0.022100
     46 H16         -2.1300     0.0310     1.2890 ha         1 DY2       0.124500
     47 H17         -3.5200     2.2420    -2.1660 ha         1 DY2       0.124500
     48 O1           5.1680    -3.7760    -1.3270 os         1 DY2      -0.337100
@<TRIPOS>BOND
     1     1    12 ar  
     2     1    15 ar  
     3     1    31 1   
     4     2    15 ar  
     5     2    21 ar  
     6     2    32 1   
     7     3    21 1   
     8     3    22 ar  
     9     3    23 ar  
    10     4     5 ar  
    11     4    23 ar  
    12     4    33 1   
    13     5     6 ar  
    14     5    30 1   
    15     6    22 ar  
    16     6    34 1   
    17     7    35 1   
    18     7    36 1   
    19     7    37 1   
    20     7    48 1   
    21     8     9 ar  
    22     8    13 ar  
    23     8    18 1   
    24     9    17 ar  
    25     9    25 ar  
    26    10    11 ar  
    27    10    25 ar  
    28    10    38 1   
    29    11    19 ar  
    30    11    48 1   
    31    12    20 ar  
    32    13    14 1   
    33    13    26 ar  
    34    14    39 1   
    35    14    40 1   
    36    14    41 1   
    37    15    26 1   
    38    16    25 ar  
    39    16    26 ar  
    40    17    19 ar  
    41    17    42 1   
    42    18    43 1   
    43    19    44 1   
    44    20    21 ar  
    45    20    45 1   
    46    22    46 1   
    47    23    47 1   
    48    24    27 1   
    49    24    28 1   
    50    24    29 1   
    51    24    30 1   
@<TRIPOS>SUBSTRUCTURE
     1 DY2         1 TEMP              0 ****  ****    0 ROOT
