@<TRIPOS>MOLECULE
DY2
   48    51     1     0     0
SMALL
bcc


@<TRIPOS>ATOM
      1 C12          1.0280     3.2760    -0.8020 ca         1 DY2       0.422200
      2 C15         -0.1070     1.3260    -0.0500 ca         1 DY2      -0.045000
      3 C16         -2.6040     1.2610    -0.1780 cp         1 DY2      -0.016000
      4 C20         -4.8620     0.7800    -0.9050 ca         1 DY2      -0.116000
      5 C19         -5.0330    -0.0270     0.2060 ca         1 DY2       0.092100
      6 C18         -4.0210    -0.1980     1.1340 ca         1 DY2      -0.116000
      7 C11          6.0390    -4.6590    -0.8880 c3         1 DY2       0.125700
      8 C6           4.5920     1.3250     0.9450 ca         1 DY2       0.207100
      9 C5           4.7430     0.0090     0.4420 ca         1 DY2      -0.204300
     10 C3           3.7210    -1.8810    -0.7050 ca         1 DY2      -0.233300
     11 C2           4.8780    -2.6110    -0.5470 ca         1 DY2       0.162100
     12 N1          -0.1100     3.8730    -1.1300 nb         1 DY2      -0.668000
     13 C8           3.3980     2.0050     0.7890 ca         1 DY2      -0.313600
     14 C9           3.2160     3.3540     1.4280 c3         1 DY2      -0.042800
     15 C10          1.0900     2.0020    -0.2420 cp         1 DY2      -0.262800
     16 N            2.4790     0.1160    -0.4070 nb         1 DY2      -0.692000
     17 C            5.9200    -0.7510     0.5840 ca         1 DY2      -0.045000
     18 O            5.6470     1.8380     1.5810 oh         1 DY2      -0.489100
     19 C1           5.9920    -2.0320     0.1050 ca         1 DY2      -0.214000
     20 C13         -1.2440     3.2260    -0.9130 ca         1 DY2       0.420200
     21 C14         -1.3110     1.9380    -0.3810 cp         1 DY2      -0.165300
     22 C17         -2.8120     0.4490     0.9370 ca         1 DY2      -0.110500
     23 C21         -3.6460     1.4180    -1.0920 ca         1 DY2      -0.110500
     24 C22         -6.4610    -1.8530    -0.0850 c3         1 DY2       0.855700
     25 C4           3.6310    -0.5650    -0.2170 ca         1 DY2       0.464600
     26 C7           2.3820     1.3390     0.0570 cp         1 DY2       0.533800
     27 F           -7.6810    -2.2380     0.2500 f          1 DY2      -0.229967
     28 F1          -5.5930    -2.7520     0.3820 f          1 DY2      -0.229967
     29 F2          -6.3620    -1.8780    -1.4150 f          1 DY2      -0.229967
     30 O2          -6.2660    -0.6310     0.4260 os         1 DY2      -0.379900
     31 H1           1.9380     3.8280    -1.0110 h4         1 DY2       0.024100
     32 H2          -0.0920     0.3190     0.3490 ha         1 DY2       0.155000
     33 H3          -5.6640     0.9180    -1.6180 ha         1 DY2       0.154000
     34 H4          -4.1760    -0.8090     2.0140 ha         1 DY2       0.154000
     35 H5           6.2980    -4.8150     0.1610 h1         1 DY2       0.043033
     36 H6           5.8070    -5.6220    -1.3370 h1         1 DY2       0.043033
     37 H7           6.9000    -4.2310    -1.4070 h1         1 DY2       0.043033
     38 H8           2.8640    -2.3120    -1.2070 ha         1 DY2       0.165000
     39 H9           3.7150     4.1510     0.8720 hc         1 DY2       0.044367
     40 H10          2.1670     3.6240     1.5100 hc         1 DY2       0.044367
     41 H11          3.6070     3.3690     2.4480 hc         1 DY2       0.044367
     42 H12          6.7830    -0.3310     1.0800 ha         1 DY2       0.146000
     43 H13          5.4830     2.7430     1.8730 ho         1 DY2       0.439000
     44 H14          6.9110    -2.5870     0.2340 ha         1 DY2       0.138000
     45 H15         -2.1560     3.7590    -1.1620 h4         1 DY2       0.022100
     46 H16         -2.0310     0.3290     1.6760 ha         1 DY2       0.142500
     47 H17         -3.5110     2.0300    -1.9740 ha         1 DY2       0.142500
     48 O1           4.8790    -3.8620    -1.0360 os         1 DY2      -0.313900
@<TRIPOS>BOND
     1     1    12 ar  
     2     1    15 ar  
     3     1    31 1   
     4     2    15 ar  
     5     2    21 ar  
     6     2    32 1   
     7     3    21 1   
     8     3    22 ar  
     9     3    23 ar  
    10     4     5 ar  
    11     4    23 ar  
    12     4    33 1   
    13     5     6 ar  
    14     5    30 1   
    15     6    22 ar  
    16     6    34 1   
    17     7    35 1   
    18     7    36 1   
    19     7    37 1   
    20     7    48 1   
    21     8     9 ar  
    22     8    13 ar  
    23     8    18 1   
    24     9    17 ar  
    25     9    25 ar  
    26    10    11 ar  
    27    10    25 ar  
    28    10    38 1   
    29    11    19 ar  
    30    11    48 1   
    31    12    20 ar  
    32    13    14 1   
    33    13    26 ar  
    34    14    39 1   
    35    14    40 1   
    36    14    41 1   
    37    15    26 1   
    38    16    25 ar  
    39    16    26 ar  
    40    17    19 ar  
    41    17    42 1   
    42    18    43 1   
    43    19    44 1   
    44    20    21 ar  
    45    20    45 1   
    46    22    46 1   
    47    23    47 1   
    48    24    27 1   
    49    24    28 1   
    50    24    29 1   
    51    24    30 1   
@<TRIPOS>SUBSTRUCTURE
     1 DY2         1 TEMP              0 ****  ****    0 ROOT
