@<TRIPOS>MOLECULE
DY3
   41    42     1     0     0
SMALL
bcc


@<TRIPOS>ATOM
      1 N1         -64.3020    -0.8830   -28.5750 na         1 DY3      -0.259800
      2 C2         -63.1150    -2.5980   -29.8040 ca         1 DY3      -0.113000
      3 C4         -63.5300    -1.2830   -29.6970 ca         1 DY3      -0.022200
      4 C5         -62.0720    -2.0930   -31.9210 ca         1 DY3      -0.060300
      5 C          -63.9630    -0.0180   -27.5820 cc         1 DY3       0.411800
      6 C6         -63.2140    -0.3620   -30.6810 ca         1 DY3      -0.113000
      7 O          -62.9740     2.9290   -29.3470 oh         1 DY3      -0.609800
      8 C11        -63.6200     2.9880   -28.0930 c3         1 DY3       0.134400
      9 C10        -62.8340     2.1710   -27.0870 c3         1 DY3      -0.067400
     10 C9         -62.6640     0.7000   -27.4670 c3         1 DY3      -0.100700
     11 C1         -65.5640    -1.3040   -28.2600 cc         1 DY3       0.456800
     12 S          -66.4890    -2.4750   -29.1580 ss         1 DY3      -0.274400
     13 C8         -66.7980    -1.5730   -30.7030 c3         1 DY3      -0.030000
     14 N2         -65.9500    -0.7370   -27.1550 nd         1 DY3      -0.310000
     15 N          -64.9470     0.0620   -26.7270 nd         1 DY3      -0.381000
     16 C7         -62.4770    -0.7570   -31.7910 ca         1 DY3      -0.068800
     17 C13        -62.1330     0.2580   -32.8430 c3         1 DY3      -0.047800
     18 C12        -61.2790    -2.5080   -33.1270 c3         1 DY3      -0.052800
     19 C3         -62.3880    -3.0160   -30.9140 ca         1 DY3      -0.068800
     20 C14        -61.9500    -4.4510   -30.9980 c3         1 DY3      -0.047800
     21 H1         -63.3540    -3.3060   -29.0200 ha         1 DY3       0.152500
     22 H2         -63.5290     0.6690   -30.5770 ha         1 DY3       0.152500
     23 H3         -63.5020     3.4210   -29.9820 ho         1 DY3       0.401000
     24 H4         -63.6890     4.0200   -27.7270 h1         1 DY3       0.026200
     25 H5         -64.6470     2.6080   -28.1560 h1         1 DY3       0.026200
     26 H6         -61.8420     2.6070   -26.9510 hc         1 DY3       0.059700
     27 H7         -63.3400     2.2460   -26.1230 hc         1 DY3       0.059700
     28 H8         -62.0640     0.2020   -26.7000 hc         1 DY3       0.066700
     29 H9         -62.0990     0.6100   -28.3930 hc         1 DY3       0.066700
     30 H10        -67.4630    -2.2020   -31.2920 h1         1 DY3       0.067700
     31 H11        -67.2890    -0.6240   -30.5040 h1         1 DY3       0.067700
     32 H12        -65.8780    -1.4130   -31.2600 h1         1 DY3       0.067700
     33 H13        -62.5780     0.0040   -33.8070 hc         1 DY3       0.045533
     34 H14        -62.4910     1.2480   -32.5640 hc         1 DY3       0.045533
     35 H15        -61.0560     0.3270   -33.0000 hc         1 DY3       0.045533
     36 H16        -60.2330    -2.2040   -33.0310 hc         1 DY3       0.045700
     37 H17        -61.2870    -3.5850   -33.2800 hc         1 DY3       0.045700
     38 H18        -61.6600    -2.0470   -34.0380 hc         1 DY3       0.045700
     39 H19        -60.8650    -4.5380   -31.0760 hc         1 DY3       0.045533
     40 H20        -62.2640    -5.0060   -30.1160 hc         1 DY3       0.045533
     41 H21        -62.3740    -4.9520   -31.8710 hc         1 DY3       0.045533
@<TRIPOS>BOND
     1     1     3 1   
     2     1     5 1   
     3     1    11 1   
     4     2     3 ar  
     5     2    19 ar  
     6     2    21 1   
     7     3     6 ar  
     8     4    16 ar  
     9     4    18 1   
    10     4    19 ar  
    11     5    10 1   
    12     5    15 2   
    13     6    16 ar  
    14     6    22 1   
    15     7     8 1   
    16     7    23 1   
    17     8     9 1   
    18     8    24 1   
    19     8    25 1   
    20     9    10 1   
    21     9    26 1   
    22     9    27 1   
    23    10    28 1   
    24    10    29 1   
    25    11    12 1   
    26    11    14 2   
    27    12    13 1   
    28    13    30 1   
    29    13    31 1   
    30    13    32 1   
    31    14    15 1   
    32    16    17 1   
    33    17    33 1   
    34    17    34 1   
    35    17    35 1   
    36    18    36 1   
    37    18    37 1   
    38    18    38 1   
    39    19    20 1   
    40    20    39 1   
    41    20    40 1   
    42    20    41 1   
@<TRIPOS>SUBSTRUCTURE
     1 DY3         1 TEMP              0 ****  ****    0 ROOT
