@<TRIPOS>MOLECULE
DY3
   41    42     1     0     0
SMALL
No Charge or Current Charge


@<TRIPOS>ATOM
      1 N1         -64.4770    -0.7310   -28.6600 na         1 DY3      -0.259800
      2 C2         -63.2320    -2.4950   -29.7690 ca         1 DY3      -0.095000
      3 C4         -63.6990    -1.1730   -29.7270 ca         1 DY3      -0.022200
      4 C5         -62.1370    -2.0630   -31.9140 ca         1 DY3      -0.060300
      5 C          -63.9640    -0.0700   -27.5670 cc         1 DY3       0.411800
      6 C6         -63.3710    -0.2900   -30.7660 ca         1 DY3      -0.095000
      7 O          -62.9820     3.0850   -29.3070 oh         1 DY3      -0.672000
      8 C11        -63.5990     3.0080   -28.0170 c3         1 DY3       0.157600
      9 C10        -62.7490     2.1330   -27.0680 c3         1 DY3      -0.067400
     10 C9         -62.6360     0.6450   -27.4870 c3         1 DY3      -0.100700
     11 C1         -65.6350    -1.3160   -28.2270 cc         1 DY3       0.456800
     12 S          -66.6930    -2.3610   -29.1830 ss         1 DY3      -0.322300
     13 C8         -66.5370    -1.7020   -30.9060 c3         1 DY3       0.017900
     14 N2         -65.8790    -0.9900   -26.9730 nd         1 DY3      -0.310000
     15 N          -64.8220    -0.1990   -26.5560 nd         1 DY3      -0.381000
     16 C7         -62.5910    -0.7180   -31.8560 ca         1 DY3      -0.068800
     17 C13        -62.2540     0.2940   -32.9480 c3         1 DY3      -0.047800
     18 C12        -61.2950    -2.5460   -33.1030 c3         1 DY3      -0.052800
     19 C3         -62.4520    -2.9490   -30.8500 ca         1 DY3      -0.068800
     20 C14        -61.9630    -4.3960   -30.8350 c3         1 DY3      -0.047800
     21 H1         -63.4780    -3.1760   -28.9570 ha         1 DY3       0.134500
     22 H2         -63.7280     0.7370   -30.7240 ha         1 DY3       0.134500
     23 H3         -63.5010     3.7330   -29.8340 ho         1 DY3       0.440000
     24 H4         -63.6890     4.0130   -27.5840 h1         1 DY3       0.026200
     25 H5         -64.6110     2.5890   -28.0990 h1         1 DY3       0.026200
     26 H6         -61.7430     2.5630   -26.9930 hc         1 DY3       0.059700
     27 H7         -63.1840     2.1890   -26.0630 hc         1 DY3       0.059700
     28 H8         -62.0010     0.1230   -26.7610 hc         1 DY3       0.066700
     29 H9         -62.1070     0.5840   -28.4440 hc         1 DY3       0.066700
     30 H10        -67.3340    -2.1240   -31.5310 h1         1 DY3       0.067700
     31 H11        -66.6300    -0.6080   -30.8990 h1         1 DY3       0.067700
     32 H12        -65.5710    -1.9860   -31.3400 h1         1 DY3       0.067700
     33 H13        -62.7840     0.0600   -33.8800 hc         1 DY3       0.045533
     34 H14        -62.5370     1.3140   -32.6610 hc         1 DY3       0.045533
     35 H15        -61.1790     0.3080   -33.1610 hc         1 DY3       0.045533
     36 H16        -60.2270    -2.3950   -32.9090 hc         1 DY3       0.045700
     37 H17        -61.4480    -3.6100   -33.3170 hc         1 DY3       0.045700
     38 H18        -61.5430    -2.0210   -34.0320 hc         1 DY3       0.045700
     39 H19        -60.8830    -4.4530   -31.0140 hc         1 DY3       0.045533
     40 H20        -62.1550    -4.8820   -29.8710 hc         1 DY3       0.045533
     41 H21        -62.4680    -4.9900   -31.6060 hc         1 DY3       0.045533
@<TRIPOS>BOND
     1     1     3 1   
     2     1     5 1   
     3     1    11 1   
     4     2     3 ar  
     5     2    19 ar  
     6     2    21 1   
     7     3     6 ar  
     8     4    16 ar  
     9     4    18 1   
    10     4    19 ar  
    11     5    10 1   
    12     5    15 2   
    13     6    16 ar  
    14     6    22 1   
    15     7     8 1   
    16     7    23 1   
    17     8     9 1   
    18     8    24 1   
    19     8    25 1   
    20     9    10 1   
    21     9    26 1   
    22     9    27 1   
    23    10    28 1   
    24    10    29 1   
    25    11    12 1   
    26    11    14 2   
    27    12    13 1   
    28    13    30 1   
    29    13    31 1   
    30    13    32 1   
    31    14    15 1   
    32    16    17 1   
    33    17    33 1   
    34    17    34 1   
    35    17    35 1   
    36    18    36 1   
    37    18    37 1   
    38    18    38 1   
    39    19    20 1   
    40    20    39 1   
    41    20    40 1   
    42    20    41 1   
@<TRIPOS>SUBSTRUCTURE
     1 DY3         1 TEMP              0 ****  ****    0 ROOT
