@<TRIPOS>MOLECULE
DY4
   57    61     1     0     0
SMALL
No Charge or Current Charge


@<TRIPOS>ATOM
      1 C4           3.3320     0.8680     0.2130 cc         1 DY4      -0.363600
      2 C5           2.0070     0.4060     0.5720 cc         1 DY4       0.435200
      3 C6           4.2870    -1.2470     1.1670 c          1 DY4       0.526200
      4 N1           8.8510    -0.1600    -0.8750 na         1 DY4       0.133800
      5 C7           0.8180     1.2720     0.3570 ca         1 DY4      -0.162900
      6 C8          -0.5110     0.7570     0.3440 ca         1 DY4       0.213000
      7 N2           7.9260     0.7370    -0.3670 nc         1 DY4      -0.532800
      8 C9          -1.6330     1.6000     0.1930 ca         1 DY4      -0.135000
      9 C10         -4.1310     1.4280     0.7290 c          1 DY4       0.655700
     10 C11         -5.2770     0.5610     0.3820 cc         1 DY4      -0.291600
     11 C12         -6.5610     0.7610     0.8320 cd         1 DY4      -0.046000
     12 C13         -7.4800    -0.2140     0.3550 cd         1 DY4      -0.117300
     13 C14         -6.8960    -1.1610    -0.4530 cc         1 DY4      -0.179300
     14 C15         -7.6490    -2.2970    -1.1070 c6         1 DY4      -0.007100
     15 N4           1.8450    -0.7690     1.1850 nd         1 DY4      -0.420300
     16 C1          10.2480     0.2570    -1.0750 c3         1 DY4       0.073900
     17 C16         -9.0330    -2.5020    -0.4380 c6         1 DY4      -0.071400
     18 C17         -9.7610    -1.1510    -0.2250 c6         1 DY4      -0.073400
     19 C18         -8.9520    -0.2210     0.7160 c6         1 DY4      -0.009100
     20 C19         -1.4320     2.9850     0.0310 ca         1 DY4       0.222000
     21 C2           6.8390     0.0140    -0.3290 cd         1 DY4       0.485900
     22 C20         -0.1390     3.5150     0.0570 ca         1 DY4      -0.168000
     23 C21          0.9720     2.6770     0.2310 ca         1 DY4      -0.047000
     24 C22          6.9990    -1.2900    -0.8190 cd         1 DY4      -0.234000
     25 C23          8.3120    -1.4180    -1.1670 cc         1 DY4      -0.119300
     26 C24          9.0550    -2.5900    -1.7500 c3         1 DY4      -0.031800
     27 C3           4.4410     0.0850     0.4610 cd         1 DY4       0.103800
     28 F1          -0.7470    -0.5750     0.4250 f          1 DY4      -0.157000
     29 F2          -2.4680     3.8200    -0.2070 f          1 DY4      -0.153000
     30 N5           2.9640    -1.5320     1.4460 ns         1 DY4      -0.218900
     31 N6          -2.9330     1.0110     0.1660 ns         1 DY4      -0.157000
     32 O1           5.1910    -2.0050     1.4980 o          1 DY4      -0.524000
     33 O2          -4.2320     2.4020     1.4650 o          1 DY4      -0.565100
     34 S1          -5.1730    -0.8570    -0.6580 ss         1 DY4       0.202000
     35 H4           3.4470     1.8100    -0.3040 ha         1 DY4       0.195000
     36 H1          -6.8480     1.5800     1.4880 ha         1 DY4       0.153000
     37 H2           5.7460     1.5990     0.0690 hn         1 DY4       0.493000
     38 H151        -7.7920    -2.0810    -2.1750 hc         1 DY4       0.054200
     39 H152        -7.0720    -3.2310    -1.0570 hc         1 DY4       0.054200
     40 H12         10.9100    -0.4060    -0.5060 h1         1 DY4       0.056033
     41 H13         10.4970     0.1940    -2.1400 h1         1 DY4       0.056033
     42 H11         10.3870     1.2890    -0.7310 h1         1 DY4       0.056033
     43 H161        -9.6490    -3.1710    -1.0540 hc         1 DY4       0.044700
     44 H162        -8.9030    -3.0030     0.5320 hc         1 DY4       0.044700
     45 H171        -9.9050    -0.6570    -1.1960 hc         1 DY4       0.044700
     46 H172       -10.7630    -1.3210     0.1910 hc         1 DY4       0.044700
     47 H181        -9.0720    -0.5630     1.7530 hc         1 DY4       0.052200
     48 H182        -9.3680     0.7950     0.6770 hc         1 DY4       0.052200
     49 H20          0.0030     4.5870    -0.0580 ha         1 DY4       0.142000
     50 H21          1.9470     3.1500     0.2890 ha         1 DY4       0.127000
     51 H22          6.2280    -2.0440    -0.9180 ha         1 DY4       0.148000
     52 H241         9.8790    -2.8960    -1.0950 hc         1 DY4       0.052033
     53 H242         8.3900    -3.4520    -1.8790 hc         1 DY4       0.052033
     54 H243         9.4750    -2.3390    -2.7310 hc         1 DY4       0.052033
     55 H3           2.8260    -2.4210     1.9190 hn         1 DY4       0.354500
     56 H5          -2.9880     0.1410    -0.3460 hn         1 DY4       0.166000
     57 N3           5.6770     0.5840     0.0790 nu         1 DY4      -0.760900
@<TRIPOS>BOND
     1     1     2 1   
     2     1    27 2   
     3     1    35 1   
     4     2     5 1   
     5     2    15 2   
     6     3    27 1   
     7     3    30 1   
     8     3    32 2   
     9     4     7 1   
    10     4    16 1   
    11     4    25 1   
    12     5     6 ar  
    13     5    23 ar  
    14     6     8 ar  
    15     6    28 1   
    16     7    21 2   
    17     8    20 ar  
    18     8    31 1   
    19     9    10 1   
    20     9    31 1   
    21     9    33 2   
    22    10    11 2   
    23    10    34 1   
    24    11    12 1   
    25    11    36 1   
    26    12    13 2   
    27    12    19 1   
    28    13    14 1   
    29    13    34 1   
    30    14    17 1   
    31    14    38 1   
    32    14    39 1   
    33    15    30 1   
    34    16    40 1   
    35    16    41 1   
    36    16    42 1   
    37    17    18 1   
    38    17    43 1   
    39    17    44 1   
    40    18    19 1   
    41    18    45 1   
    42    18    46 1   
    43    19    47 1   
    44    19    48 1   
    45    20    22 ar  
    46    20    29 1   
    47    21    24 1   
    48    21    57 1   
    49    22    23 ar  
    50    22    49 1   
    51    23    50 1   
    52    24    25 2   
    53    24    51 1   
    54    25    26 1   
    55    26    52 1   
    56    26    53 1   
    57    26    54 1   
    58    27    57 1   
    59    30    55 1   
    60    31    56 1   
    61    37    57 1   
@<TRIPOS>SUBSTRUCTURE
     1 DY4         1 TEMP              0 ****  ****    0 ROOT
