@<TRIPOS>MOLECULE
DY4
   57    61     1     0     0
SMALL
abcg2


@<TRIPOS>ATOM
      1 C4           3.2900     1.3550     0.2310 cc         1 DY4      -0.363600
      2 C5           2.0940     1.0220     0.9190 cc         1 DY4       0.435200
      3 C6           4.4350    -0.3030     1.5850 c          1 DY4       0.526200
      4 N1           8.4930    -0.6490    -1.0030 na         1 DY4       0.133800
      5 C7           0.8440     1.7450     0.6140 ca         1 DY4      -0.162900
      6 C8          -0.3560     1.0840     0.3890 ca         1 DY4       0.213000
      7 N2           7.8630     0.4280    -0.5250 nc         1 DY4      -0.532800
      8 C9          -1.5370     1.7480     0.0860 ca         1 DY4      -0.135000
      9 C10         -3.8040     1.1420     0.6450 c          1 DY4       0.655700
     10 C11         -4.9850     0.3610     0.2530 cc         1 DY4      -0.291600
     11 C12         -6.0880     0.1700     1.0360 cd         1 DY4      -0.046000
     12 C13         -7.0860    -0.6240     0.4170 cd         1 DY4      -0.117300
     13 C14         -6.7230    -1.0250    -0.8400 cc         1 DY4      -0.179300
     14 C15         -7.5580    -1.8550    -1.7600 c6         1 DY4      -0.007100
     15 N4           2.0450     0.0910     1.8190 nd         1 DY4      -0.420300
     16 C1           9.9260    -0.6310    -1.1580 c3         1 DY4       0.073900
     17 C16         -8.6910    -2.5150    -0.9760 c6         1 DY4      -0.071400
     18 C17         -9.3710    -1.5210    -0.0400 c6         1 DY4      -0.073400
     19 C18         -8.4020    -1.0110     1.0240 c6         1 DY4      -0.009100
     20 C19         -1.4900     3.1350     0.0250 ca         1 DY4       0.222000
     21 C2           6.5970     0.0760    -0.4490 cd         1 DY4       0.485900
     22 C20         -0.3280     3.8390     0.2570 ca         1 DY4      -0.168000
     23 C21          0.8300     3.1360     0.5410 ca         1 DY4      -0.047000
     24 C22          6.4000    -1.2490    -0.8700 cd         1 DY4      -0.234000
     25 C23          7.6600    -1.6900    -1.2070 cc         1 DY4      -0.119300
     26 C24          8.1150    -3.0150    -1.7070 c3         1 DY4      -0.031800
     27 C3           4.4530     0.7060     0.5230 cd         1 DY4       0.103800
     28 F1          -0.3990    -0.2470     0.4230 f          1 DY4      -0.157000
     29 F2          -2.6080     3.7910    -0.2790 f          1 DY4      -0.153000
     30 N5           3.1870    -0.5320     2.0890 ns         1 DY4      -0.218900
     31 N6          -2.7170     1.0400    -0.1720 ns         1 DY4      -0.157000
     32 O1           5.4170    -0.8900     2.0160 o          1 DY4      -0.524000
     33 O2          -3.8010     1.8400     1.6420 o          1 DY4      -0.565100
     34 S1          -5.1710    -0.4320    -1.2710 ss         1 DY4       0.202000
     35 H4           3.2680     2.1110    -0.5440 ha         1 DY4       0.195000
     36 H1          -6.1830     0.5830     2.0300 ha         1 DY4       0.153000
     37 H2           5.6370     1.8660    -0.6150 hn         1 DY4       0.493000
     38 H151        -7.9700    -1.2220    -2.5520 hc         1 DY4       0.054200
     39 H152        -6.9480    -2.6120    -2.2590 hc         1 DY4       0.054200
     40 H12         10.4310    -0.9080    -0.2330 h1         1 DY4       0.056033
     41 H13         10.2220    -1.3270    -1.9390 h1         1 DY4       0.056033
     42 H11         10.2400     0.3680    -1.4480 h1         1 DY4       0.056033
     43 H161        -9.4130    -2.9390    -1.6770 hc         1 DY4       0.044700
     44 H162        -8.2920    -3.3510    -0.3930 hc         1 DY4       0.044700
     45 H171        -9.7510    -0.6770    -0.6230 hc         1 DY4       0.044700
     46 H172       -10.2340    -1.9840     0.4420 hc         1 DY4       0.044700
     47 H181        -8.2380    -1.7870     1.7780 hc         1 DY4       0.052200
     48 H182        -8.8330    -0.1590     1.5550 hc         1 DY4       0.052200
     49 H20         -0.3250     4.9200     0.2080 ha         1 DY4       0.142000
     50 H21          1.7450     3.6850     0.7230 ha         1 DY4       0.127000
     51 H22          5.4780    -1.8030    -0.9360 ha         1 DY4       0.148000
     52 H241         8.8280    -3.4810    -1.0260 hc         1 DY4       0.052033
     53 H242         7.2630    -3.6840    -1.8060 hc         1 DY4       0.052033
     54 H243         8.5950    -2.9390    -2.6840 hc         1 DY4       0.052033
     55 H3           3.1170    -1.2190     2.8280 hn         1 DY4       0.354500
     56 H5          -2.6800     0.3250    -0.8840 hn         1 DY4       0.166000
     57 N3           5.6450     1.0230    -0.0590 nu         1 DY4      -0.760900
@<TRIPOS>BOND
     1     1     2 1   
     2     1    27 2   
     3     1    35 1   
     4     2     5 1   
     5     2    15 2   
     6     3    27 1   
     7     3    30 1   
     8     3    32 2   
     9     4     7 1   
    10     4    16 1   
    11     4    25 1   
    12     5     6 ar  
    13     5    23 ar  
    14     6     8 ar  
    15     6    28 1   
    16     7    21 2   
    17     8    20 ar  
    18     8    31 1   
    19     9    10 1   
    20     9    31 1   
    21     9    33 2   
    22    10    11 2   
    23    10    34 1   
    24    11    12 1   
    25    11    36 1   
    26    12    13 2   
    27    12    19 1   
    28    13    14 1   
    29    13    34 1   
    30    14    17 1   
    31    14    38 1   
    32    14    39 1   
    33    15    30 1   
    34    16    40 1   
    35    16    41 1   
    36    16    42 1   
    37    17    18 1   
    38    17    43 1   
    39    17    44 1   
    40    18    19 1   
    41    18    45 1   
    42    18    46 1   
    43    19    47 1   
    44    19    48 1   
    45    20    22 ar  
    46    20    29 1   
    47    21    24 1   
    48    21    57 1   
    49    22    23 ar  
    50    22    49 1   
    51    23    50 1   
    52    24    25 2   
    53    24    51 1   
    54    25    26 1   
    55    26    52 1   
    56    26    53 1   
    57    26    54 1   
    58    27    57 1   
    59    30    55 1   
    60    31    56 1   
    61    37    57 1   
@<TRIPOS>SUBSTRUCTURE
     1 DY4         1 TEMP              0 ****  ****    0 ROOT
