@<TRIPOS>MOLECULE
DY5
   27    28     1     0     0
SMALL
abcg2


@<TRIPOS>ATOM
      1 C10         -1.3610     1.3320    -0.3760 c6         1 DY5      -0.214400
      2 C13         -3.4330    -0.0380     0.1040 c3         1 DY5       0.318000
      3 C01          4.2890    -1.4980     0.1180 c3         1 DY5      -0.060800
      4 C02          2.7980    -1.3470     0.0610 ca         1 DY5      -0.066300
      5 C03          2.1660    -0.1210     0.0210 ca         1 DY5      -0.071200
      6 C04          0.7780     0.0440    -0.0440 ca         1 DY5      -0.219600
      7 C05         -0.0050    -1.1130    -0.0460 ca         1 DY5       0.177100
      8 C06          0.5910    -2.3700    -0.0180 ca         1 DY5      -0.120000
      9 C07          1.9630    -2.4710     0.0300 ca         1 DY5      -0.051000
     10 C09         -1.9440     0.1370     0.3500 c6         1 DY5       0.102300
     11 C11          0.1360     1.3620    -0.2080 c          1 DY5       0.590700
     12 F14         -3.9170    -1.0910     0.7640 f          1 DY5      -0.101667
     13 F15         -4.0990     1.0440     0.5160 f          1 DY5      -0.101667
     14 F16         -3.7090    -0.2160    -1.1890 f          1 DY5      -0.101667
     15 N17          3.0270     1.0620     0.0630 no         1 DY5       0.698200
     16 O08         -1.3470    -1.0690    -0.0860 os         1 DY5      -0.319100
     17 O12          0.7690     2.3900    -0.2710 o          1 DY5      -0.477100
     18 O18          3.5310     1.4120    -0.9730 o          1 DY5      -0.373500
     19 O19          3.2190     1.5620     1.1410 o          1 DY5      -0.373500
     20 H1          -1.5640     1.2780    -1.4510 hc         1 DY5       0.105200
     21 H2          -1.7820     2.2650    -0.0020 hc         1 DY5       0.105200
     22 H3           4.7530    -1.2430    -0.8360 hc         1 DY5       0.062367
     23 H4           4.7390    -0.8680     0.8860 hc         1 DY5       0.062367
     24 H5           4.5530    -2.5270     0.3490 hc         1 DY5       0.062367
     25 H6          -0.0290    -3.2570    -0.0260 ha         1 DY5       0.147000
     26 H7           2.4140    -3.4540     0.0600 ha         1 DY5       0.132000
     27 H8          -1.7940     0.2500     1.4320 h1         1 DY5       0.090700
@<TRIPOS>BOND
     1     1    10 1   
     2     1    11 1   
     3     1    20 1   
     4     1    21 1   
     5     2    10 1   
     6     2    12 1   
     7     2    13 1   
     8     2    14 1   
     9     3     4 1   
    10     3    22 1   
    11     3    23 1   
    12     3    24 1   
    13     4     5 ar  
    14     4     9 ar  
    15     5     6 ar  
    16     5    15 1   
    17     6     7 ar  
    18     6    11 1   
    19     7     8 ar  
    20     7    16 1   
    21     8     9 ar  
    22     8    25 1   
    23     9    26 1   
    24    10    16 1   
    25    10    27 1   
    26    11    17 2   
    27    15    18 1   
    28    15    19 1   
@<TRIPOS>SUBSTRUCTURE
     1 DY5         1 TEMP              0 ****  ****    0 ROOT
