@<TRIPOS>MOLECULE
DY5
   27    28     1     0     0
SMALL
No Charge or Current Charge


@<TRIPOS>ATOM
      1 C10         -1.3650     1.3270    -0.4150 c6         1 DY5      -0.214400
      2 C13         -3.5600    -0.0070     0.0200 c3         1 DY5       0.318000
      3 C01          4.3470    -1.5470     0.0690 c3         1 DY5      -0.060800
      4 C02          2.8290    -1.3690     0.0740 ca         1 DY5      -0.066300
      5 C03          2.2340    -0.0800     0.0320 ca         1 DY5      -0.071200
      6 C04          0.8100     0.0440     0.0210 ca         1 DY5      -0.219600
      7 C05          0.0170    -1.1240     0.0560 ca         1 DY5       0.177100
      8 C06          0.6160    -2.3890     0.0870 ca         1 DY5      -0.120000
      9 C07          2.0120    -2.5130     0.1020 ca         1 DY5      -0.051000
     10 C09         -2.0410     0.1700     0.3460 c6         1 DY5       0.102300
     11 C11          0.1030     1.3760    -0.0290 c          1 DY5       0.590700
     12 F14         -4.1060    -1.0150     0.7380 f          1 DY5      -0.101667
     13 F15         -4.2610     1.1130     0.3100 f          1 DY5      -0.101667
     14 F16         -3.7680    -0.2850    -1.2880 f          1 DY5      -0.101667
     15 N17          3.1150     1.1250    -0.0410 no         1 DY5       0.698200
     16 O08         -1.3610    -1.0680     0.0410 os         1 DY5      -0.319100
     17 O12          0.6300     2.4340     0.2860 o          1 DY5      -0.477100
     18 O18          3.2600     1.6620    -1.1480 o          1 DY5      -0.373500
     19 O19          3.7390     1.4480     0.9780 o          1 DY5      -0.373500
     20 H1          -1.4030     1.0660    -1.4810 hc         1 DY5       0.105200
     21 H2          -1.8400     2.3030    -0.2530 hc         1 DY5       0.105200
     22 H3           4.8080    -1.0260    -0.7790 hc         1 DY5       0.062367
     23 H4           4.7950    -1.1570     0.9900 hc         1 DY5       0.062367
     24 H5           4.6340    -2.6020    -0.0090 hc         1 DY5       0.062367
     25 H6          -0.0080    -3.2780     0.1050 ha         1 DY5       0.147000
     26 H7           2.4570    -3.5060     0.1300 ha         1 DY5       0.132000
     27 H8          -1.9510     0.3520     1.4270 h1         1 DY5       0.090700
@<TRIPOS>BOND
     1     1    10 1   
     2     1    11 1   
     3     1    20 1   
     4     1    21 1   
     5     2    10 1   
     6     2    12 1   
     7     2    13 1   
     8     2    14 1   
     9     3     4 1   
    10     3    22 1   
    11     3    23 1   
    12     3    24 1   
    13     4     5 ar  
    14     4     9 ar  
    15     5     6 ar  
    16     5    15 1   
    17     6     7 ar  
    18     6    11 1   
    19     7     8 ar  
    20     7    16 1   
    21     8     9 ar  
    22     8    25 1   
    23     9    26 1   
    24    10    16 1   
    25    10    27 1   
    26    11    17 2   
    27    15    18 1   
    28    15    19 1   
@<TRIPOS>SUBSTRUCTURE
     1 DY5         1 TEMP              0 ****  ****    0 ROOT
