@<TRIPOS>MOLECULE
DY6
   50    53     1     0     0
SMALL
No Charge or Current Charge


@<TRIPOS>ATOM
      1 N1          -3.3440    -0.9030    -0.2240 n3         1 DY6      -0.716500
      2 S2          -2.5170    -2.2340    -0.8820 sy         1 DY6       1.158600
      3 C3          -4.7360    -0.7720    -0.7150 c6         1 DY6       0.236100
      4 C4          -3.2800    -0.7750     1.2520 c6         1 DY6       0.192800
      5 C5          -0.8690    -2.0510    -0.1800 ca         1 DY6      -0.327500
      6 O6          -3.1590    -3.4470    -0.3640 o          1 DY6      -0.542000
      7 O7          -2.4080    -1.9620    -2.3200 o          1 DY6      -0.542000
      8 C8          -5.5040     0.4220    -0.1320 ca         1 DY6      -0.073300
      9 C9          -3.7480     0.6260     1.7060 c6         1 DY6      -0.030100
     10 C10         -0.0570    -0.9770    -0.5960 ca         1 DY6       0.020000
     11 C11         -0.3970    -2.9570     0.7880 ca         1 DY6      -0.020000
     12 C12         -5.0460     1.0750     1.0330 ca         1 DY6      -0.055300
     13 C13         -6.6930     0.8580    -0.7510 ca         1 DY6      -0.107000
     14 C14          1.2380    -0.7960    -0.0570 ca         1 DY6      -0.151600
     15 C15          0.8840    -2.7850     1.3310 ca         1 DY6      -0.144000
     16 C16         -5.7710     2.1610     1.5590 ca         1 DY6      -0.110000
     17 C17         -7.4150     1.9390    -0.2200 ca         1 DY6      -0.114000
     18 C18          2.0770     0.3750    -0.5340 c          1 DY6       0.610700
     19 C19          1.6990    -1.7170     0.9170 ca         1 DY6      -0.009000
     20 C20         -6.9540     2.5920     0.9350 ca         1 DY6      -0.111000
     21 N21          3.3550     0.4720    -0.0000 ns         1 DY6      -0.159000
     22 O22          1.6360     1.1710    -1.3580 o          1 DY6      -0.643100
     23 C23          4.3940     1.4340    -0.1480 ca         1 DY6      -0.002000
     24 C24          5.7200     1.0910     0.2410 ca         1 DY6      -0.196600
     25 C25          4.1370     2.7300    -0.6520 ca         1 DY6      -0.172000
     26 C26          6.7510     2.0470     0.0880 ca         1 DY6      -0.063000
     27 C27          6.0750    -0.2740     0.8050 c          1 DY6       0.724600
     28 C28          5.1720     3.6670    -0.7910 ca         1 DY6      -0.105000
     29 C29          6.4790     3.3240    -0.4260 ca         1 DY6      -0.172000
     30 O30          7.1870    -0.7230     0.5690 o          1 DY6      -0.706500
     31 O31          5.2480    -0.8630     1.4870 o          1 DY6      -0.706500
     32 H3          -4.7400    -0.6770    -1.8110 h1         1 DY6       0.064200
     33 H3A         -5.3080    -1.6810    -0.4770 h1         1 DY6       0.064200
     34 H4          -3.9110    -1.5410     1.7280 h1         1 DY6       0.064700
     35 H4A         -2.2590    -0.9230     1.6320 h1         1 DY6       0.064700
     36 H9          -3.8640     0.6330     2.7980 hc         1 DY6       0.059200
     37 H9A         -2.9610     1.3550     1.4730 hc         1 DY6       0.059200
     38 H10         -0.4400    -0.2790    -1.3400 ha         1 DY6       0.149000
     39 H11         -1.0150    -3.7890     1.1230 ha         1 DY6       0.123000
     40 H13         -7.0580     0.3560    -1.6450 ha         1 DY6       0.111000
     41 H15          1.2490    -3.4840     2.0800 ha         1 DY6       0.119000
     42 H16         -5.4160     2.6730     2.4510 ha         1 DY6       0.109000
     43 H17         -8.3310     2.2710    -0.7030 ha         1 DY6       0.109000
     44 H19          2.6820    -1.6250     1.3710 ha         1 DY6       0.157000
     45 H20         -7.5110     3.4310     1.3460 ha         1 DY6       0.108000
     46 HN21         3.6090    -0.2850     0.6220 hn         1 DY6       0.236000
     47 H25          3.1330     3.0360    -0.9290 ha         1 DY6       0.129000
     48 H26          7.7720     1.8010     0.3760 ha         1 DY6       0.128000
     49 H28          4.9590     4.6600    -1.1810 ha         1 DY6       0.087000
     50 H29          7.2820     4.0490    -0.5330 ha         1 DY6       0.091000
@<TRIPOS>BOND
     1     1     2 1   
     2     1     3 1   
     3     1     4 1   
     4     2     5 1   
     5     2     6 2   
     6     2     7 2   
     7     3     8 1   
     8     3    32 1   
     9     3    33 1   
    10     4     9 1   
    11     4    34 1   
    12     4    35 1   
    13     5    10 ar  
    14     5    11 ar  
    15     8    12 ar  
    16     8    13 ar  
    17     9    12 1   
    18     9    36 1   
    19     9    37 1   
    20    10    14 ar  
    21    10    38 1   
    22    11    15 ar  
    23    11    39 1   
    24    12    16 ar  
    25    13    17 ar  
    26    13    40 1   
    27    14    18 1   
    28    14    19 ar  
    29    15    19 ar  
    30    15    41 1   
    31    16    20 ar  
    32    16    42 1   
    33    17    20 ar  
    34    17    43 1   
    35    18    21 1   
    36    18    22 2   
    37    19    44 1   
    38    20    45 1   
    39    21    23 1   
    40    21    46 1   
    41    23    24 ar  
    42    23    25 ar  
    43    24    26 ar  
    44    24    27 1   
    45    25    28 ar  
    46    25    47 1   
    47    26    29 ar  
    48    26    48 1   
    49    27    30 1   
    50    27    31 1   
    51    28    29 ar  
    52    28    49 1   
    53    29    50 1   
@<TRIPOS>SUBSTRUCTURE
     1 DY6         1 TEMP              0 ****  ****    0 ROOT
