@<TRIPOS>MOLECULE
DY6
   50    53     1     0     0
SMALL
bcc


@<TRIPOS>ATOM
      1 N1          -3.5190    -0.2300    -1.0400 n3         1 DY6      -0.716500
      2 S2          -2.4460    -1.1280    -1.9240 sy         1 DY6       1.300200
      3 C3          -4.0830    -0.8810     0.1390 c6         1 DY6       0.236100
      4 C4          -3.1760     1.1720    -0.7910 c6         1 DY6       0.192800
      5 C5          -1.0020    -1.2990    -0.9100 ca         1 DY6      -0.327500
      6 O6          -3.0380    -2.4430    -2.0950 o          1 DY6      -0.612800
      7 O7          -2.0900    -0.3420    -3.0920 o          1 DY6      -0.612800
      8 C8          -5.2070    -0.0620     0.7180 ca         1 DY6      -0.073300
      9 C9          -4.4660     1.9460    -0.6000 c6         1 DY6      -0.030100
     10 C10         -0.0160    -0.3270    -0.9700 ca         1 DY6       0.002000
     11 C11         -0.9100    -2.3700    -0.0300 ca         1 DY6      -0.038000
     12 C12         -5.3810     1.2800     0.3890 ca         1 DY6      -0.055300
     13 C13         -6.0670    -0.6670     1.6320 ca         1 DY6      -0.125000
     14 C14          1.0990    -0.4280    -0.1450 ca         1 DY6      -0.151600
     15 C15          0.1930    -2.4560     0.8030 ca         1 DY6      -0.162000
     16 C16         -6.4240     1.9920     0.9800 ca         1 DY6      -0.128000
     17 C17         -7.0990     0.0490     2.2160 ca         1 DY6      -0.132000
     18 C18          2.1300     0.6570    -0.2370 c          1 DY6       0.677700
     19 C19          1.1920    -1.4950     0.7470 ca         1 DY6      -0.027000
     20 C20         -7.2790     1.3870     1.8860 ca         1 DY6      -0.129000
     21 N21          3.3640     0.2880     0.1510 ns         1 DY6      -0.485100
     22 O22          1.8120     1.7640    -0.6490 o          1 DY6      -0.643100
     23 C23          4.5290     1.0460     0.2440 ca         1 DY6       0.090600
     24 C24          5.6990     0.3730     0.6630 ca         1 DY6      -0.196600
     25 C25          4.5850     2.4150    -0.0410 ca         1 DY6      -0.190000
     26 C26          6.8800     1.1020     0.7720 ca         1 DY6      -0.081000
     27 C27          5.7420    -1.1120     1.0060 c          1 DY6       0.935200
     28 C28          5.7800     3.1060     0.0800 ca         1 DY6      -0.123000
     29 C29          6.9360     2.4560     0.4850 ca         1 DY6      -0.190000
     30 O30          6.8160    -1.5740     1.4070 o          1 DY6      -0.811800
     31 O31          4.6770    -1.7750     0.8560 o          1 DY6      -0.811800
     32 H3          -4.4600    -1.8650    -0.1350 h1         1 DY6       0.064200
     33 H3A         -3.3160    -1.0240     0.9130 h1         1 DY6       0.064200
     34 H4          -2.5350     1.2550     0.0950 h1         1 DY6       0.064700
     35 H4A         -2.6310     1.5810    -1.6380 h1         1 DY6       0.064700
     36 H9          -4.2270     2.9590    -0.2700 hc         1 DY6       0.059200
     37 H9A         -4.9710     2.0420    -1.5650 hc         1 DY6       0.059200
     38 H10         -0.0910     0.4990    -1.6650 ha         1 DY6       0.167000
     39 H11         -1.6780    -3.1310     0.0110 ha         1 DY6       0.141000
     40 H13         -5.9250    -1.7110     1.8870 ha         1 DY6       0.129000
     41 H15          0.2760    -3.2780     1.5010 ha         1 DY6       0.137000
     42 H16         -6.5610     3.0360     0.7250 ha         1 DY6       0.127000
     43 H17         -7.7610    -0.4360     2.9220 ha         1 DY6       0.127000
     44 H19          2.0340    -1.5840     1.4190 ha         1 DY6       0.175000
     45 H20         -8.0820     1.9570     2.3370 ha         1 DY6       0.126000
     46 HN21         3.5840    -0.7050     0.3840 hn         1 DY6       0.402500
     47 H25          3.6990     2.9400    -0.3580 ha         1 DY6       0.147000
     48 H26          7.7730     0.5850     1.0910 ha         1 DY6       0.146000
     49 H28          5.8000     4.1650    -0.1450 ha         1 DY6       0.105000
     50 H29          7.8690     2.9970     0.5770 ha         1 DY6       0.109000
@<TRIPOS>BOND
     1     1     2 1   
     2     1     3 1   
     3     1     4 1   
     4     2     5 1   
     5     2     6 2   
     6     2     7 2   
     7     3     8 1   
     8     3    32 1   
     9     3    33 1   
    10     4     9 1   
    11     4    34 1   
    12     4    35 1   
    13     5    10 ar  
    14     5    11 ar  
    15     8    12 ar  
    16     8    13 ar  
    17     9    12 1   
    18     9    36 1   
    19     9    37 1   
    20    10    14 ar  
    21    10    38 1   
    22    11    15 ar  
    23    11    39 1   
    24    12    16 ar  
    25    13    17 ar  
    26    13    40 1   
    27    14    18 1   
    28    14    19 ar  
    29    15    19 ar  
    30    15    41 1   
    31    16    20 ar  
    32    16    42 1   
    33    17    20 ar  
    34    17    43 1   
    35    18    21 1   
    36    18    22 2   
    37    19    44 1   
    38    20    45 1   
    39    21    23 1   
    40    21    46 1   
    41    23    24 ar  
    42    23    25 ar  
    43    24    26 ar  
    44    24    27 1   
    45    25    28 ar  
    46    25    47 1   
    47    26    29 ar  
    48    26    48 1   
    49    27    30 1   
    50    27    31 1   
    51    28    29 ar  
    52    28    49 1   
    53    29    50 1   
@<TRIPOS>SUBSTRUCTURE
     1 DY6         1 TEMP              0 ****  ****    0 ROOT
