@<TRIPOS>MOLECULE
DY7
   28    29     1     0     0
SMALL
No Charge or Current Charge


@<TRIPOS>ATOM
      1 C15         -4.9940     1.3620     0.2540 ca         1 DY7       0.111400
      2 C11          1.3490    -1.2340     0.3200 ca         1 DY7      -0.003400
      3 C10          2.4890    -0.4250     0.1910 ca         1 DY7      -0.044000
      4 C14         -3.7040     1.7550     0.6290 ca         1 DY7      -0.276000
      5 N17         -5.1330     0.2520    -0.5670 na         1 DY7      -0.425200
      6 C02         -3.9790    -0.3850    -0.9420 ca         1 DY7       0.749000
      7 N03         -2.7390    -0.0570    -0.6120 nb         1 DY7      -0.825000
      8 C04         -2.6170     1.0050     0.1780 ca         1 DY7       0.732900
      9 N05         -1.3300     1.3700     0.4950 nu         1 DY7      -0.862900
     10 C06         -0.0770     0.7500     0.3810 ca         1 DY7       0.250000
     11 C07          1.0720     1.5560     0.2680 ca         1 DY7      -0.091000
     12 C08          2.3470     0.9720     0.1680 ca         1 DY7      -0.003400
     13 Br9          3.8940     2.0840     0.0010 br         1 DY7      -0.044600
     14 C13          0.0740    -0.6510     0.4200 ca         1 DY7      -0.091000
     15 C16         -6.2300     2.1200     0.7000 c3         1 DY7      -0.086800
     16 H101         3.4750    -0.8770     0.1140 ha         1 DY7       0.165000
     17 H141        -3.5480     2.6210     1.2630 ha         1 DY7       0.171000
     18 H011        -4.9180    -1.9580    -1.8130 hn         1 DY7       0.380500
     19 H012        -3.1870    -1.9800    -1.8560 hn         1 DY7       0.380500
     20 H051        -1.2920     2.3330     0.8160 hn         1 DY7       0.522000
     21 H071         0.9780     2.6380     0.2470 ha         1 DY7       0.145500
     22 H131        -0.7920    -1.2930     0.5410 ha         1 DY7       0.145500
     23 H162        -6.6400     2.7190    -0.1210 hc         1 DY7       0.089033
     24 H161        -7.0150     1.4340     1.0420 hc         1 DY7       0.089033
     25 H163        -6.0070     2.8010     1.5290 hc         1 DY7       0.089033
     26 H171        -6.0300    -0.0670    -0.9020 hn         1 DY7       0.375000
     27 N01         -4.0430    -1.4630    -1.7300 nv         1 DY7      -0.597500
     28 Br2          1.5320    -3.1380     0.3700 br         1 DY7      -0.044600
@<TRIPOS>BOND
     1     1     4 ar  
     2     1     5 2   
     3     1    15 1   
     4     2     3 ar  
     5     2    14 ar  
     6     2    28 1   
     7     3    12 ar  
     8     3    16 1   
     9     4     8 ar  
    10     4    17 1   
    11     5     6 1   
    12     5    26 1   
    13     6     7 ar  
    14     6    27 1   
    15     7     8 ar  
    16     8     9 1   
    17     9    10 1   
    18     9    20 1   
    19    10    11 ar  
    20    10    14 ar  
    21    11    12 ar  
    22    11    21 1   
    23    12    13 1   
    24    14    22 1   
    25    15    23 1   
    26    15    24 1   
    27    15    25 1   
    28    18    27 1   
    29    19    27 1   
@<TRIPOS>SUBSTRUCTURE
     1 DY7         1 TEMP              0 ****  ****    0 ROOT
