@<TRIPOS>MOLECULE
DY7
   28    29     1     0     0
SMALL
abcg2


@<TRIPOS>ATOM
      1 C15         -4.8950     1.4460     0.1800 ca         1 DY7       0.111400
      2 C11          1.3790    -1.0770    -0.2110 ca         1 DY7      -0.003400
      3 C10          2.5020    -0.3330     0.1100 ca         1 DY7      -0.044000
      4 C14         -3.6340     1.8570     0.4540 ca         1 DY7      -0.276000
      5 N17         -5.0680     0.1970    -0.3350 na         1 DY7      -0.425200
      6 C02         -4.0190    -0.6220    -0.5780 ca         1 DY7       0.749000
      7 N03         -2.7760    -0.2480    -0.3220 nb         1 DY7      -0.825000
      8 C04         -2.5690     0.9550     0.1840 ca         1 DY7       0.732900
      9 N05         -1.3200     1.3660     0.4610 nu         1 DY7      -0.862900
     10 C06         -0.0840     0.7370     0.3150 ca         1 DY7       0.250000
     11 C07          1.0300     1.5130     0.6460 ca         1 DY7      -0.091000
     12 C08          2.2950     0.9700     0.5400 ca         1 DY7      -0.003400
     13 BR9          3.7850     2.0300     0.9900 br         1 DY7      -0.044600
     14 C13          0.0900    -0.5770    -0.1190 ca         1 DY7      -0.091000
     15 C16         -6.1160     2.2630     0.3890 c3         1 DY7      -0.086800
     16 H101         3.4970    -0.7480     0.0290 ha         1 DY7       0.165000
     17 H141        -3.4510     2.8400     0.8630 ha         1 DY7       0.171000
     18 H011        -5.1720    -2.1600    -1.2840 hn         1 DY7       0.380500
     19 H012        -3.4680    -2.4290    -1.2710 hn         1 DY7       0.380500
     20 H051        -1.2630     2.3010     0.8380 hn         1 DY7       0.522000
     21 H071         0.8940     2.5340     0.9800 ha         1 DY7       0.145500
     22 H131        -0.7600    -1.1850    -0.3760 ha         1 DY7       0.145500
     23 H162        -6.6110     2.4540    -0.5650 hc         1 DY7       0.089033
     24 H161        -6.8250     1.7400     1.0320 hc         1 DY7       0.089033
     25 H163        -5.8660     3.2150     0.8480 hc         1 DY7       0.089033
     26 H171        -6.0060    -0.1220    -0.5380 hn         1 DY7       0.375000
     27 N01         -4.2470    -1.8200    -1.0830 nv         1 DY7      -0.597500
     28 BR2          1.6110    -2.8550    -0.7960 br         1 DY7      -0.044600
@<TRIPOS>BOND
     1     1     4 ar  
     2     1     5 2   
     3     1    15 1   
     4     2     3 ar  
     5     2    14 ar  
     6     2    28 1   
     7     3    12 ar  
     8     3    16 1   
     9     4     8 ar  
    10     4    17 1   
    11     5     6 1   
    12     5    26 1   
    13     6     7 ar  
    14     6    27 1   
    15     7     8 ar  
    16     8     9 1   
    17     9    10 1   
    18     9    20 1   
    19    10    11 ar  
    20    10    14 ar  
    21    11    12 ar  
    22    11    21 1   
    23    12    13 1   
    24    14    22 1   
    25    15    23 1   
    26    15    24 1   
    27    15    25 1   
    28    18    27 1   
    29    19    27 1   
@<TRIPOS>SUBSTRUCTURE
     1 DY7         1 TEMP              0 ****  ****    0 ROOT
