@<TRIPOS>MOLECULE
DY8
   32    33     1     0     0
SMALL
No Charge or Current Charge


@<TRIPOS>ATOM
      1 N            0.6780    -0.2130    -0.2470 nx         1 DY8      -0.631000
      2 C            1.3210     2.2470     0.4710 c          1 DY8       0.726000
      3 O            1.5850     2.2950     1.6650 o          1 DY8      -0.631500
      4 CAG          1.2540    -0.8990     1.0160 c6         1 DY8       0.061100
      5 CAE          1.7140    -2.3450     0.7050 c6         1 DY8       0.125100
      6 OAL          2.6540    -2.3420    -0.3920 os         1 DY8      -0.392000
      7 CAF          2.1080    -1.8190    -1.6250 c6         1 DY8       0.125100
      8 CAH          1.6680    -0.3460    -1.4280 c6         1 DY8       0.061100
      9 CA           0.2230     1.2480    -0.0140 c3         1 DY8      -0.051700
     10 CB          -1.0430     1.3020     0.8740 c3         1 DY8      -0.045100
     11 CG          -2.1220     0.3720     0.3790 cc         1 DY8      -0.127300
     12 CD2         -2.5200     0.1440    -0.9250 cd         1 DY8      -0.176000
     13 NE2         -3.5180    -0.8060    -0.8700 na         1 DY8      -0.109700
     14 CE1         -3.7650    -1.1870     0.4230 cc         1 DY8      -0.048300
     15 ND1         -2.8940    -0.4500     1.2090 na         1 DY8      -0.075000
     16 H           -0.1820    -0.7430    -0.5120 hn         1 DY8       0.422000
     17 HAG          2.1020    -0.2990     1.3620 hx         1 DY8       0.121950
     18 HE4          0.4910    -0.8870     1.8010 hx         1 DY8       0.121950
     19 HAE          2.1960    -2.7820     1.5910 h1         1 DY8       0.072450
     20 HE2          0.8480    -2.9710     0.4440 h1         1 DY8       0.072450
     21 HE3          2.8740    -1.8770    -2.4110 h1         1 DY8       0.072450
     22 HAF          1.2510    -2.4330    -1.9360 h1         1 DY8       0.072450
     23 HE5          1.1900     0.0480    -2.3310 hx         1 DY8       0.121950
     24 HAH          2.5360     0.2820    -1.2050 hx         1 DY8       0.121950
     25 HA          -0.0730     1.6300    -0.9930 hx         1 DY8       0.079700
     26 HB2         -0.7750     1.0570     1.9100 hc         1 DY8       0.123700
     27 HB1         -1.4240     2.3310     0.8940 hc         1 DY8       0.123700
     28 HD2         -2.1710     0.5820    -1.8580 h4         1 DY8       0.217000
     29 H2          -4.0110    -1.1730    -1.6820 hn         1 DY8       0.419000
     30 HE1         -4.4990    -1.9140     0.7640 h5         1 DY8       0.241000
     31 HD1         -2.8350    -0.4990     2.2230 hn         1 DY8       0.417000
     32 OXT          1.8730     2.9300    -0.3790 o          1 DY8      -0.631500
@<TRIPOS>BOND
     1     1     4 1   
     2     1     8 1   
     3     1     9 1   
     4     1    16 1   
     5     2     3 1   
     6     2     9 1   
     7     2    32 1   
     8     4     5 1   
     9     4    17 1   
    10     4    18 1   
    11     5     6 1   
    12     5    19 1   
    13     5    20 1   
    14     6     7 1   
    15     7     8 1   
    16     7    21 1   
    17     7    22 1   
    18     8    23 1   
    19     8    24 1   
    20     9    10 1   
    21     9    25 1   
    22    10    11 1   
    23    10    26 1   
    24    10    27 1   
    25    11    12 2   
    26    11    15 1   
    27    12    13 1   
    28    12    28 1   
    29    13    14 2   
    30    13    29 1   
    31    14    15 1   
    32    14    30 1   
    33    15    31 1   
@<TRIPOS>SUBSTRUCTURE
     1 DY8         1 TEMP              0 ****  ****    0 ROOT
