@<TRIPOS>MOLECULE
DY8
   32    33     1     0     0
SMALL
bcc


@<TRIPOS>ATOM
      1 N            0.7680    -0.1950    -0.2530 nx         1 DY8      -0.660400
      2 C            1.3110     2.2510     0.4040 c          1 DY8       0.936600
      3 O            2.4580     1.8580     0.6550 o          1 DY8      -0.736800
      4 CAG          1.1990    -0.8610     1.0170 c6         1 DY8       0.089300
      5 CAE          1.5550    -2.3050     0.7230 c6         1 DY8       0.101900
      6 OAL          2.5620    -2.4050    -0.2520 os         1 DY8      -0.345600
      7 CAF          2.1460    -1.8270    -1.4640 c6         1 DY8       0.101900
      8 CAH          1.8280    -0.3550    -1.2980 c6         1 DY8       0.089300
      9 CA           0.2640     1.2180    -0.1180 c3         1 DY8      -0.023500
     10 CB          -1.0030     1.2620     0.7370 c3         1 DY8      -0.045100
     11 CG          -2.0810     0.3440     0.2740 cc         1 DY8      -0.076600
     12 CD2         -2.5770     0.0920    -0.9680 cd         1 DY8      -0.143300
     13 NE2         -3.5880    -0.8170    -0.8160 na         1 DY8      -0.110100
     14 CE1         -3.7250    -1.1250     0.4590 cc         1 DY8      -0.015600
     15 ND1         -2.8190    -0.4370     1.1310 na         1 DY8      -0.126100
     16 H           -0.0350    -0.7330    -0.5980 hn         1 DY8       0.366800
     17 HAG          2.0430    -0.3000     1.4040 hx         1 DY8       0.121950
     18 HE4          0.3800    -0.8170     1.7320 hx         1 DY8       0.121950
     19 HAE          1.9230    -2.7640     1.6410 h1         1 DY8       0.072450
     20 HE2          0.6560    -2.8580     0.4140 h1         1 DY8       0.072450
     21 HE3          2.9580    -1.9270    -2.1840 h1         1 DY8       0.072450
     22 HAF          1.2740    -2.3570    -1.8720 h1         1 DY8       0.072450
     23 HE5          1.4460     0.0620    -2.2280 hx         1 DY8       0.121950
     24 HAH          2.6940     0.2140    -0.9730 hx         1 DY8       0.121950
     25 HA           0.0070     1.5060    -1.1420 hx         1 DY8       0.079700
     26 HB2         -0.7790     1.0670     1.7880 hc         1 DY8       0.123700
     27 HB1         -1.3650     2.2890     0.6950 hc         1 DY8       0.123700
     28 HD2         -2.3050     0.4910    -1.9300 h4         1 DY8       0.235000
     29 H2          -4.1550    -1.1950    -1.5620 hn         1 DY8       0.368700
     30 HE1         -4.4410    -1.8120     0.8770 h5         1 DY8       0.259000
     31 HD1         -2.7110    -0.4780     2.1360 hn         1 DY8       0.366700
     32 OXT          0.8460     3.3940     0.4950 o          1 DY8      -0.736800
@<TRIPOS>BOND
     1     1     4 1   
     2     1     8 1   
     3     1     9 1   
     4     1    16 1   
     5     2     3 1   
     6     2     9 1   
     7     2    32 1   
     8     4     5 1   
     9     4    17 1   
    10     4    18 1   
    11     5     6 1   
    12     5    19 1   
    13     5    20 1   
    14     6     7 1   
    15     7     8 1   
    16     7    21 1   
    17     7    22 1   
    18     8    23 1   
    19     8    24 1   
    20     9    10 1   
    21     9    25 1   
    22    10    11 1   
    23    10    26 1   
    24    10    27 1   
    25    11    12 2   
    26    11    15 1   
    27    12    13 1   
    28    12    28 1   
    29    13    14 2   
    30    13    29 1   
    31    14    15 1   
    32    14    30 1   
    33    15    31 1   
@<TRIPOS>SUBSTRUCTURE
     1 DY8         1 TEMP              0 ****  ****    0 ROOT
