@<TRIPOS>MOLECULE
DY9
   36    40     1     0     0
SMALL
No Charge or Current Charge


@<TRIPOS>ATOM
      1 C1          13.7950    22.9740    23.0300 c6         1 DY9       0.224600
      2 C2          14.0620    24.4740    23.2460 cx         1 DY9       0.113300
      3 C3          14.6900    25.3040    22.1610 cx         1 DY9       0.003000
      4 C4          15.0400    24.6070    20.8450 c          1 DY9       0.608700
      5 C5          14.3300    22.8220    19.1900 ca         1 DY9      -0.113000
      6 C6          13.7100    21.6040    18.8440 ca         1 DY9       0.129100
      7 O1          13.2750    25.4090    22.4690 op         1 DY9      -0.412000
      8 O2          15.8360    25.1070    20.0540 o          1 DY9      -0.501100
      9 O3          13.7060    21.2100    17.5350 oh         1 DY9      -0.567100
     10 O6          14.7980    22.2320    23.7410 oh         1 DY9      -0.705000
     11 C4A         14.3630    23.2900    20.5320 ca         1 DY9      -0.124600
     12 C6A         13.1190    20.8230    19.8680 cp         1 DY9       0.004000
     13 C6B         12.4140    19.5060    19.8290 cp         1 DY9      -0.124000
     14 C7          12.0850    18.6300    18.7640 ca         1 DY9       0.192100
     15 C8          11.3990    17.4310    19.0490 ca         1 DY9      -0.130000
     16 C9          11.0390    17.0940    20.3740 ca         1 DY9      -0.079000
     17 C10         11.3610    17.9580    21.4380 ca         1 DY9      -0.079000
     18 C11         12.0410    19.1440    21.1310 ca         1 DY9      -0.143600
     19 C14         13.7660    22.5180    21.5610 ca         1 DY9      -0.024300
     20 C12         12.5150    20.2390    22.0350 c          1 DY9       0.603300
     21 C13         13.1720    21.2940    21.1910 ca         1 DY9      -0.160600
     22 C15         15.5450    26.5030    22.5730 c3         1 DY9      -0.066100
     23 HC          12.8040    22.7850    23.4700 h1         1 DY9       0.075700
     24 HC1         14.2120    24.7620    24.2870 h1         1 DY9       0.107700
     25 HC2         14.7890    23.4230    18.4070 ha         1 DY9       0.138000
     26 HO          14.1740    21.8910    17.0000 ho         1 DY9       0.491000
     27 HO1         12.8940    19.7740    17.4780 ho         1 DY9       0.502000
     28 H           14.4490    21.3140    23.8230 ho         1 DY9       0.527000
     29 HC3         11.1440    16.7560    18.2370 ha         1 DY9       0.132000
     30 HC4         10.5110    16.1640    20.5730 ha         1 DY9       0.123000
     31 HC5         11.0920    17.7120    22.4630 ha         1 DY9       0.135000
     32 HC6         15.1160    27.0240    23.4380 hc         1 DY9       0.057033
     33 HC8         16.5590    26.1830    22.8430 hc         1 DY9       0.057033
     34 HC7         15.6280    27.2300    21.7570 hc         1 DY9       0.057033
     35 O4          12.4080    18.9080    17.4740 oh         1 DY9      -0.538100
     36 O5          12.4140    20.2500    23.2560 o          1 DY9      -0.513100
@<TRIPOS>BOND
     1     1     2 1   
     2     1    10 1   
     3     1    19 1   
     4     1    23 1   
     5     2     3 1   
     6     2     7 1   
     7     2    24 1   
     8     3     4 1   
     9     3     7 1   
    10     3    22 1   
    11     4     8 2   
    12     4    11 1   
    13     5     6 ar  
    14     5    11 ar  
    15     5    25 1   
    16     6     9 1   
    17     6    12 ar  
    18     9    26 1   
    19    10    28 1   
    20    11    19 ar  
    21    12    13 1   
    22    12    21 ar  
    23    13    14 ar  
    24    13    18 ar  
    25    14    15 ar  
    26    14    35 1   
    27    15    16 ar  
    28    15    29 1   
    29    16    17 ar  
    30    16    30 1   
    31    17    18 ar  
    32    17    31 1   
    33    18    20 1   
    34    19    21 ar  
    35    20    21 1   
    36    20    36 2   
    37    22    32 1   
    38    22    33 1   
    39    22    34 1   
    40    27    35 1   
@<TRIPOS>SUBSTRUCTURE
     1 DY9         1 TEMP              0 ****  ****    0 ROOT
