@<TRIPOS>MOLECULE
DY9
   36    40     1     0     0
SMALL
abcg2


@<TRIPOS>ATOM
      1 C1          13.7980    22.9230    23.0320 c6         1 DY9       0.224600
      2 C2          14.0460    24.3990    23.1930 cx         1 DY9       0.113300
      3 C3          14.7020    25.2130    22.1630 cx         1 DY9       0.003000
      4 C4          15.0750    24.5190    20.8900 c          1 DY9       0.608700
      5 C5          14.3510    22.8280    19.2520 ca         1 DY9      -0.113000
      6 C6          13.7310    21.6420    18.8840 ca         1 DY9       0.129100
      7 O1          13.2890    25.2390    22.3610 op         1 DY9      -0.412000
      8 O2          15.9190    24.9780    20.1530 o          1 DY9      -0.501100
      9 O3          13.6930    21.2180    17.6060 oh         1 DY9      -0.567100
     10 O6          14.8250    22.2600    23.7310 oh         1 DY9      -0.705000
     11 C4A         14.3610    23.2600    20.5750 ca         1 DY9      -0.124600
     12 C6A         13.1410    20.8580    19.8670 cp         1 DY9       0.004000
     13 C6B         12.4350    19.5620    19.8040 cp         1 DY9      -0.124000
     14 C7          12.0980    18.7050    18.7580 ca         1 DY9       0.192100
     15 C8          11.4030    17.5240    19.0780 ca         1 DY9      -0.130000
     16 C9          11.0590    17.2040    20.3760 ca         1 DY9      -0.079000
     17 C10         11.3970    18.0550    21.4300 ca         1 DY9      -0.079000
     18 C11         12.0710    19.2100    21.1130 ca         1 DY9      -0.143600
     19 C14         13.7560    22.4990    21.5820 ca         1 DY9      -0.024300
     20 C12         12.5500    20.2560    22.0450 c          1 DY9       0.603300
     21 C13         13.1860    21.2980    21.1960 ca         1 DY9      -0.160600
     22 C15         15.4630    26.4560    22.5110 c3         1 DY9      -0.066100
     23 HC          12.8200    22.7180    23.4800 h1         1 DY9       0.075700
     24 HC1         14.1500    24.7260    24.2270 h1         1 DY9       0.107700
     25 HC2         14.8300    23.4350    18.4930 ha         1 DY9       0.138000
     26 HO          14.1200    21.8320    16.9960 ho         1 DY9       0.491000
     27 HO1         12.8710    19.7250    17.3290 ho         1 DY9       0.502000
     28 H           14.4890    21.4020    24.0130 ho         1 DY9       0.527000
     29 HC3         11.1380    16.8540    18.2700 ha         1 DY9       0.132000
     30 HC4         10.5250    16.2840    20.5710 ha         1 DY9       0.123000
     31 HC5         11.1390    17.8150    22.4520 ha         1 DY9       0.135000
     32 HC6         15.0980    26.8760    23.4480 hc         1 DY9       0.057033
     33 HC8         16.5220    26.2330    22.6340 hc         1 DY9       0.057033
     34 HC7         15.3620    27.2120    21.7340 hc         1 DY9       0.057033
     35 O4          12.3730    18.8980    17.4670 oh         1 DY9      -0.538100
     36 O5          12.4700    20.2370    23.2530 o          1 DY9      -0.513100
@<TRIPOS>BOND
     1     1     2 1   
     2     1    10 1   
     3     1    19 1   
     4     1    23 1   
     5     2     3 1   
     6     2     7 1   
     7     2    24 1   
     8     3     4 1   
     9     3     7 1   
    10     3    22 1   
    11     4     8 2   
    12     4    11 1   
    13     5     6 ar  
    14     5    11 ar  
    15     5    25 1   
    16     6     9 1   
    17     6    12 ar  
    18     9    26 1   
    19    10    28 1   
    20    11    19 ar  
    21    12    13 1   
    22    12    21 ar  
    23    13    14 ar  
    24    13    18 ar  
    25    14    15 ar  
    26    14    35 1   
    27    15    16 ar  
    28    15    29 1   
    29    16    17 ar  
    30    16    30 1   
    31    17    18 ar  
    32    17    31 1   
    33    18    20 1   
    34    19    21 ar  
    35    20    21 1   
    36    20    36 2   
    37    22    32 1   
    38    22    33 1   
    39    22    34 1   
    40    27    35 1   
@<TRIPOS>SUBSTRUCTURE
     1 DY9         1 TEMP              0 ****  ****    0 ROOT
