@<TRIPOS>MOLECULE
DYA
   12    11     1     0     0
SMALL
bcc


@<TRIPOS>ATOM
      1 N           -0.3420     1.6060     0.2610 nv         1 DYA      -0.874600
      2 CA          -0.4390     0.2580     0.1150 ce         1 DYA       0.026800
      3 CB           0.6200    -0.5870     0.0570 cf         1 DYA      -0.369200
      4 CG           2.0510    -0.1860     0.0560 c          1 DYA       0.922800
      5 OD1          2.8990    -1.1090     0.0180 o          1 DYA      -0.901300
      6 OD2          2.3390     1.0420     0.0830 o          1 DYA      -0.901300
      7 C           -1.8790    -0.2740     0.0410 c          1 DYA       0.912800
      8 O           -2.0410    -1.5070     0.0570 o          1 DYA      -0.867300
      9 OXT         -2.7710     0.5950    -0.0380 o          1 DYA      -0.867300
     10 HN1          0.5810     1.9860     0.0990 hn         1 DYA       0.402300
     11 HN2         -1.1470     2.1410    -0.0150 hn         1 DYA       0.402300
     12 HB           0.3990    -1.6440    -0.0050 ha         1 DYA       0.115000
@<TRIPOS>BOND
     1     1     2 1   
     2     1    10 1   
     3     1    11 1   
     4     2     3 2   
     5     2     7 1   
     6     3     4 1   
     7     3    12 1   
     8     4     5 1   
     9     4     6 1   
    10     7     8 1   
    11     7     9 1   
@<TRIPOS>SUBSTRUCTURE
     1 DYA         1 TEMP              0 ****  ****    0 ROOT
