@<TRIPOS>MOLECULE
DYA
   12    11     1     0     0
SMALL
No Charge or Current Charge


@<TRIPOS>ATOM
      1 N           -0.3160     1.6380     0.1820 nv         1 DYA      -0.985000
      2 CA          -0.4730     0.2480     0.0980 ce         1 DYA       0.026800
      3 CB           0.6330    -0.5610     0.0580 cf         1 DYA      -0.419200
      4 CG           2.0730    -0.1800     0.0730 c          1 DYA       0.712200
      5 OD1          2.8760    -1.0950     0.0450 o          1 DYA      -0.796000
      6 OD2          2.4050     0.9950     0.0930 o          1 DYA      -0.796000
      7 C           -1.9330    -0.3090     0.0460 c          1 DYA       0.702200
      8 O           -2.1110    -1.5200    -0.0200 o          1 DYA      -0.762000
      9 OXT         -2.8710     0.4820     0.0640 o          1 DYA      -0.762000
     10 HN1          0.6340     2.0050     0.0850 hn         1 DYA       0.457500
     11 HN2         -1.1120     2.2510     0.0040 hn         1 DYA       0.457500
     12 HB           0.4640    -1.6330     0.0010 ha         1 DYA       0.165000
@<TRIPOS>BOND
     1     1     2 1   
     2     1    10 1   
     3     1    11 1   
     4     2     3 2   
     5     2     7 1   
     6     3     4 1   
     7     3    12 1   
     8     4     5 1   
     9     4     6 1   
    10     7     8 1   
    11     7     9 1   
@<TRIPOS>SUBSTRUCTURE
     1 DYA         1 TEMP              0 ****  ****    0 ROOT
