@<TRIPOS>MOLECULE
DYC
   22    24     1     0     0
SMALL
No Charge or Current Charge


@<TRIPOS>ATOM
      1 CAB          4.0250     0.1740    -0.2750 cc         1 DYC       0.429900
      2 CAD          3.8950     2.2430     0.2330 cd         1 DYC       0.252900
      3 CAE          2.5940     1.8440    -0.0180 cc         1 DYC      -0.220000
      4 CAF          1.8110    -0.4290    -0.0720 cc         1 DYC      -0.041000
      5 CAG          2.4610    -1.6410     0.1410 cd         1 DYC      -0.239000
      6 CAI          0.3490    -0.3200    -0.0500 ca         1 DYC      -0.018000
      7 CAJ         -0.4190    -1.1300     0.8150 ca         1 DYC      -0.091000
      8 CAK         -1.8210    -1.0260     0.8340 ca         1 DYC      -0.084000
      9 CAL         -2.4680    -0.1140    -0.0140 ca         1 DYC      -0.010900
     10 CAM         -1.7170     0.6940    -0.8820 ca         1 DYC      -0.084000
     11 CAN         -0.3140     0.5900    -0.9000 ca         1 DYC      -0.091000
     12 NAA          2.7390     0.5430    -0.4280 na         1 DYC      -0.020500
     13 NAC          4.7850     1.1720     0.1450 nd         1 DYC      -0.638000
     14 SAH          4.2360    -1.5100     0.0920 ss         1 DYC       0.046600
     15 BrA         -4.3750     0.0270     0.0110 br         1 DYC      -0.086100
     16 H1           4.2270     3.2200     0.5620 h4         1 DYC       0.042100
     17 H2           1.6500     2.3650     0.0670 h4         1 DYC       0.167000
     18 H3           2.0110    -2.6020     0.3620 h4         1 DYC       0.166000
     19 H5           0.0690    -1.8330     1.4850 ha         1 DYC       0.125000
     20 H6          -2.4030    -1.6510     1.5080 ha         1 DYC       0.134000
     21 H7          -2.2180     1.3980    -1.5430 ha         1 DYC       0.134000
     22 H8           0.2550     1.2110    -1.5870 ha         1 DYC       0.125000
@<TRIPOS>BOND
     1     1    12 1   
     2     1    13 2   
     3     1    14 1   
     4     2     3 2   
     5     2    13 1   
     6     2    16 1   
     7     3    12 1   
     8     3    17 1   
     9     4     5 2   
    10     4     6 1   
    11     4    12 1   
    12     5    14 1   
    13     5    18 1   
    14     6     7 ar  
    15     6    11 ar  
    16     7     8 ar  
    17     7    19 1   
    18     8     9 ar  
    19     8    20 1   
    20     9    10 ar  
    21     9    15 1   
    22    10    11 ar  
    23    10    21 1   
    24    11    22 1   
@<TRIPOS>SUBSTRUCTURE
     1 DYC         1 TEMP              0 ****  ****    0 ROOT
