@<TRIPOS>MOLECULE
DYC
   22    24     1     0     0
SMALL
abcg2


@<TRIPOS>ATOM
      1 CAB          3.9780     0.2080     0.0430 cc         1 DYC       0.429900
      2 CAD          3.9120     2.3120     0.0560 cd         1 DYC       0.252900
      3 CAE          2.6030     1.9150     0.0420 cc         1 DYC      -0.220000
      4 CAF          1.7810    -0.5360     0.0510 cc         1 DYC      -0.041000
      5 CAG          2.4570    -1.7030     0.0840 cd         1 DYC      -0.239000
      6 CAI          0.3290    -0.3660     0.0260 ca         1 DYC      -0.018000
      7 CAJ         -0.4760    -1.1840     0.8190 ca         1 DYC      -0.091000
      8 CAK         -1.8560    -1.0690     0.7880 ca         1 DYC      -0.084000
      9 CAL         -2.4360    -0.1170    -0.0380 ca         1 DYC      -0.010900
     10 CAM         -1.6570     0.7110    -0.8340 ca         1 DYC      -0.084000
     11 CAN         -0.2780     0.5800    -0.7990 ca         1 DYC      -0.091000
     12 NAA          2.6570     0.5420     0.0260 na         1 DYC      -0.020500
     13 NAC          4.7690     1.2420     0.0590 nd         1 DYC      -0.638000
     14 SAH          4.1840    -1.5080     0.0860 ss         1 DYC       0.046600
     15 BRA         -4.3130     0.0580    -0.0770 br         1 DYC      -0.086100
     16 H1           4.2800     3.3260     0.0640 h4         1 DYC       0.042100
     17 H2           1.6840     2.4740     0.0490 h4         1 DYC       0.167000
     18 H3           2.0260    -2.6920     0.0780 h4         1 DYC       0.166000
     19 H5          -0.0230    -1.9120     1.4800 ha         1 DYC       0.125000
     20 H6          -2.4610    -1.7110     1.4130 ha         1 DYC       0.134000
     21 H7          -2.1070     1.4480    -1.4840 ha         1 DYC       0.134000
     22 H8           0.3170     1.2090    -1.4480 ha         1 DYC       0.125000
@<TRIPOS>BOND
     1     1    12 1   
     2     1    13 2   
     3     1    14 1   
     4     2     3 2   
     5     2    13 1   
     6     2    16 1   
     7     3    12 1   
     8     3    17 1   
     9     4     5 2   
    10     4     6 1   
    11     4    12 1   
    12     5    14 1   
    13     5    18 1   
    14     6     7 ar  
    15     6    11 ar  
    16     7     8 ar  
    17     7    19 1   
    18     8     9 ar  
    19     8    20 1   
    20     9    10 ar  
    21     9    15 1   
    22    10    11 ar  
    23    10    21 1   
    24    11    22 1   
@<TRIPOS>SUBSTRUCTURE
     1 DYC         1 TEMP              0 ****  ****    0 ROOT
