@<TRIPOS>MOLECULE
DYD
   22    21     1     0     0
SMALL
bcc


@<TRIPOS>ATOM
      1 C01         -3.0670     0.8030    -0.4110 c3         1 DYD      -0.129100
      2 C02         -1.9320    -0.2060    -0.3200 c3         1 DYD       0.148100
      3 C03         -0.5770     0.4810    -0.2500 c3         1 DYD      -0.065400
      4 C04          0.6030    -0.4850    -0.2460 c3         1 DYD      -0.065400
      5 C05          1.9570     0.2020    -0.3310 c3         1 DYD       0.148100
      6 C06          3.0930    -0.8090    -0.4050 c3         1 DYD      -0.129100
      7 O07          2.0880     1.0390     0.8050 oh         1 DYD      -0.597800
      8 O08         -2.0620    -1.0210     0.8330 oh         1 DYD      -0.597800
      9 H1          -4.0380     0.3040    -0.4510 hc         1 DYD       0.040367
     10 H2          -3.0650     1.4720     0.4520 hc         1 DYD       0.040367
     11 H3          -2.9760     1.4120    -1.3110 hc         1 DYD       0.040367
     12 H4          -1.9530    -0.8310    -1.2260 h1         1 DYD       0.021700
     13 H5          -0.4940     1.1460    -1.1170 hc         1 DYD       0.051700
     14 H6          -0.5480     1.1250     0.6340 hc         1 DYD       0.051700
     15 H7           0.5780    -1.1170     0.6470 hc         1 DYD       0.051700
     16 H8           0.5160    -1.1600    -1.1030 hc         1 DYD       0.051700
     17 H9           1.9750     0.8090    -1.2500 h1         1 DYD       0.021700
     18 H10          3.0000    -1.4330    -1.2940 hc         1 DYD       0.040367
     19 H11          4.0630    -0.3100    -0.4550 hc         1 DYD       0.040367
     20 H12          3.0910    -1.4620     0.4700 hc         1 DYD       0.040367
     21 H13          2.9370     1.4880     0.7510 ho         1 DYD       0.398000
     22 H14         -2.9060    -1.4800     0.7830 ho         1 DYD       0.398000
@<TRIPOS>BOND
     1     1     2 1   
     2     1     9 1   
     3     1    10 1   
     4     1    11 1   
     5     2     3 1   
     6     2     8 1   
     7     2    12 1   
     8     3     4 1   
     9     3    13 1   
    10     3    14 1   
    11     4     5 1   
    12     4    15 1   
    13     4    16 1   
    14     5     6 1   
    15     5     7 1   
    16     5    17 1   
    17     6    18 1   
    18     6    19 1   
    19     6    20 1   
    20     7    21 1   
    21     8    22 1   
@<TRIPOS>SUBSTRUCTURE
     1 DYD         1 TEMP              0 ****  ****    0 ROOT
