@<TRIPOS>MOLECULE
DYD
   22    21     1     0     0
SMALL
No Charge or Current Charge


@<TRIPOS>ATOM
      1 C01         -3.1310     0.7950    -0.4240 c3         1 DYD      -0.129100
      2 C02         -1.9700    -0.2110    -0.3060 c3         1 DYD       0.171300
      3 C03         -0.5890     0.4880    -0.2570 c3         1 DYD      -0.065400
      4 C04          0.6140    -0.4910    -0.2500 c3         1 DYD      -0.065400
      5 C05          1.9960     0.2060    -0.3150 c3         1 DYD       0.171300
      6 C06          3.1570    -0.8010    -0.4190 c3         1 DYD      -0.129100
      7 O07          2.1930     1.0070     0.8540 oh         1 DYD      -0.660000
      8 O08         -2.1640    -0.9920     0.8770 oh         1 DYD      -0.660000
      9 H1          -4.0940     0.2730    -0.4790 hc         1 DYD       0.040367
     10 H2          -3.1540     1.4720     0.4390 hc         1 DYD       0.040367
     11 H3          -3.0240     1.4000    -1.3320 hc         1 DYD       0.040367
     12 H4          -1.9950    -0.8630    -1.1890 h1         1 DYD       0.021700
     13 H5          -0.4990     1.1460    -1.1290 hc         1 DYD       0.051700
     14 H6          -0.5430     1.1320     0.6300 hc         1 DYD       0.051700
     15 H7           0.5710    -1.1210     0.6470 hc         1 DYD       0.051700
     16 H8           0.5220    -1.1640    -1.1120 hc         1 DYD       0.051700
     17 H9           2.0180     0.8440    -1.2090 h1         1 DYD       0.021700
     18 H10          3.0470    -1.4210    -1.3170 hc         1 DYD       0.040367
     19 H11          4.1190    -0.2800    -0.4860 hc         1 DYD       0.040367
     20 H12          3.1810    -1.4640     0.4540 hc         1 DYD       0.040367
     21 H13          3.0590     1.4570     0.7480 ho         1 DYD       0.437000
     22 H14         -3.0310    -1.4440     0.7810 ho         1 DYD       0.437000
@<TRIPOS>BOND
     1     1     2 1   
     2     1     9 1   
     3     1    10 1   
     4     1    11 1   
     5     2     3 1   
     6     2     8 1   
     7     2    12 1   
     8     3     4 1   
     9     3    13 1   
    10     3    14 1   
    11     4     5 1   
    12     4    15 1   
    13     4    16 1   
    14     5     6 1   
    15     5     7 1   
    16     5    17 1   
    17     6    18 1   
    18     6    19 1   
    19     6    20 1   
    20     7    21 1   
    21     8    22 1   
@<TRIPOS>SUBSTRUCTURE
     1 DYD         1 TEMP              0 ****  ****    0 ROOT
