@<TRIPOS>MOLECULE
DYG
   37    38     1     0     0
SMALL
No Charge or Current Charge


@<TRIPOS>ATOM
      1 N            1.0480     2.5770    -1.2560 n8         1 DYG      -0.957200
      2 OD2          3.7370     3.8390     0.3240 o          1 DYG      -0.749500
      3 OD1          4.8190     2.0250    -0.0900 o          1 DYG      -0.749500
      4 CG1          3.8040     2.6210     0.2390 c          1 DYG       0.737000
      5 CB1          2.5600     1.7870     0.5660 c3         1 DYG      -0.206400
      6 CA1          1.8010     1.3940    -0.7280 c3         1 DYG       0.140200
      7 C1           0.9210     0.1400    -0.5230 cc         1 DYG       0.491900
      8 N2          -0.4000     0.2140    -0.2830 nd         1 DYG      -0.716300
      9 N3           1.4080    -1.1600    -0.5940 n          1 DYG      -0.297300
     10 C2           0.3830    -2.0510    -0.3900 c          1 DYG       0.532200
     11 O2           0.4290    -3.2760    -0.3850 o          1 DYG      -0.522000
     12 CA2         -0.7570    -1.1290    -0.1940 cd         1 DYG       0.072400
     13 CA3          2.8210    -1.5930    -0.7920 c3         1 DYG      -0.054000
     14 CB2         -2.0560    -1.5310     0.0490 ce         1 DYG      -0.166200
     15 CG2         -3.3310    -0.7560     0.1330 ca         1 DYG      -0.039800
     16 CD1         -4.3830    -1.2590     0.9240 ca         1 DYG      -0.066500
     17 CD2         -3.5260     0.4460    -0.5810 ca         1 DYG      -0.066500
     18 CE1         -5.6030    -0.5640     1.0160 ca         1 DYG      -0.185000
     19 CE2         -4.7470     1.1390    -0.4890 ca         1 DYG      -0.185000
     20 CZ          -5.7830     0.6340     0.3120 ca         1 DYG       0.105100
     21 OH          -6.9660     1.3010     0.4030 oh         1 DYG      -0.553100
     22 C            3.4090    -2.4350     0.3650 c          1 DYG       0.725000
     23 O            3.2230    -2.0560     1.5130 o          1 DYG      -0.722000
     24 OXT          4.0330    -3.4480     0.0820 o          1 DYG      -0.722000
     25 HB11         2.8870     0.8370     1.0030 hc         1 DYG       0.052700
     26 HB12         1.8660     2.3420     1.2070 hc         1 DYG       0.052700
     27 HA1          2.5500     1.1250    -1.4870 h1         1 DYG       0.100700
     28 HN1          0.5910     2.3120    -2.1360 hn         1 DYG       0.374000
     29 HN2          0.2530     2.7430    -0.6290 hn         1 DYG       0.374000
     30 HB2         -2.1780    -2.6090     0.1610 ha         1 DYG       0.176000
     31 H1          -2.7410     0.8400    -1.2190 ha         1 DYG       0.133500
     32 HE2         -4.8810     2.0630    -1.0460 ha         1 DYG       0.104500
     33 HOH         -6.9090     2.1090    -0.1520 ho         1 DYG       0.454000
     34 HE1         -6.4060    -0.9590     1.6330 ha         1 DYG       0.104500
     35 HD1         -4.2540    -2.1890     1.4750 ha         1 DYG       0.133500
     36 HA31         2.8750    -2.1890    -1.7120 h1         1 DYG       0.048200
     37 HA32         3.4750    -0.7240    -0.9210 h1         1 DYG       0.048200
@<TRIPOS>BOND
     1     1     6 1   
     2     1    28 1   
     3     1    29 1   
     4     2     4 1   
     5     3     4 1   
     6     4     5 1   
     7     5     6 1   
     8     5    25 1   
     9     5    26 1   
    10     6     7 1   
    11     6    27 1   
    12     7     8 2   
    13     7     9 1   
    14     8    12 1   
    15     9    10 1   
    16     9    13 1   
    17    10    11 2   
    18    10    12 1   
    19    12    14 2   
    20    13    22 1   
    21    13    36 1   
    22    13    37 1   
    23    14    15 1   
    24    14    30 1   
    25    15    16 ar  
    26    15    17 ar  
    27    16    18 ar  
    28    16    35 1   
    29    17    19 ar  
    30    17    31 1   
    31    18    20 ar  
    32    18    34 1   
    33    19    20 ar  
    34    19    32 1   
    35    20    21 1   
    36    21    33 1   
    37    22    23 1   
    38    22    24 1   
@<TRIPOS>SUBSTRUCTURE
     1 DYG         1 TEMP              0 ****  ****    0 ROOT
