@<TRIPOS>MOLECULE
DYG
   37    38     1     0     0
SMALL
abcg2


@<TRIPOS>ATOM
      1 N            1.1510     2.3390    -1.5960 n8         1 DYG      -0.957200
      2 OD2          3.6940     3.6110     0.9760 o          1 DYG      -0.749500
      3 OD1          4.3980     2.4350    -0.7810 o          1 DYG      -0.749500
      4 CG1          3.6120     2.6750     0.1560 c          1 DYG       0.737000
      5 CB1          2.4510     1.6840     0.3550 c3         1 DYG      -0.206400
      6 CA1          1.8300     1.2270    -0.9640 c3         1 DYG       0.140200
      7 C1           0.9330     0.0500    -0.7080 cc         1 DYG       0.491900
      8 N2          -0.3390     0.1580    -0.5090 nd         1 DYG      -0.716300
      9 N3           1.3990    -1.2460    -0.6390 n          1 DYG      -0.297300
     10 C2           0.3390    -2.0640    -0.3300 c          1 DYG       0.532200
     11 O2           0.3840    -3.2700    -0.1840 o          1 DYG      -0.522000
     12 CA2         -0.8040    -1.1250    -0.2580 cd         1 DYG       0.072400
     13 CA3          2.7580    -1.7170    -0.6870 c3         1 DYG      -0.054000
     14 CB2         -2.0620    -1.5210     0.0180 ce         1 DYG      -0.166200
     15 CG2         -3.2710    -0.7330     0.1300 ca         1 DYG      -0.039800
     16 CD1         -4.4670    -1.3950     0.4420 ca         1 DYG      -0.066500
     17 CD2         -3.3260     0.6560    -0.0520 ca         1 DYG      -0.066500
     18 CE1         -5.6630    -0.7180     0.5700 ca         1 DYG      -0.185000
     19 CE2         -4.5180     1.3440     0.0730 ca         1 DYG      -0.185000
     20 CZ          -5.6960     0.6640     0.3860 ca         1 DYG       0.105100
     21 OH          -6.8780     1.2870     0.5190 oh         1 DYG      -0.553100
     22 C            3.3670    -2.0060     0.7060 c          1 DYG       0.725000
     23 O            2.7000    -1.6800     1.7000 o          1 DYG      -0.722000
     24 OXT          4.4930    -2.5350     0.6710 o          1 DYG      -0.722000
     25 HB11         2.8290     0.8180     0.9090 hc         1 DYG       0.052700
     26 HB12         1.6690     2.1230     0.9820 hc         1 DYG       0.052700
     27 HA1          2.6450     0.9160    -1.6220 h1         1 DYG       0.100700
     28 HN1          0.8020     2.0570    -2.5040 hn         1 DYG       0.374000
     29 HN2          0.3300     2.5830    -1.0540 hn         1 DYG       0.374000
     30 HB2         -2.1870    -2.5870     0.1850 ha         1 DYG       0.176000
     31 H1          -2.4250     1.2000    -0.2950 ha         1 DYG       0.133500
     32 HE2         -4.5330     2.4180    -0.0720 ha         1 DYG       0.104500
     33 HOH         -6.7800     2.2350     0.3730 ho         1 DYG       0.454000
     34 HE1         -6.5730    -1.2510     0.8140 ha         1 DYG       0.104500
     35 HD1         -4.4550    -2.4690     0.5870 ha         1 DYG       0.133500
     36 HA31         2.7930    -2.6210    -1.2980 h1         1 DYG       0.048200
     37 HA32         3.3720    -0.9780    -1.2020 h1         1 DYG       0.048200
@<TRIPOS>BOND
     1     1     6 1   
     2     1    28 1   
     3     1    29 1   
     4     2     4 1   
     5     3     4 1   
     6     4     5 1   
     7     5     6 1   
     8     5    25 1   
     9     5    26 1   
    10     6     7 1   
    11     6    27 1   
    12     7     8 2   
    13     7     9 1   
    14     8    12 1   
    15     9    10 1   
    16     9    13 1   
    17    10    11 2   
    18    10    12 1   
    19    12    14 2   
    20    13    22 1   
    21    13    36 1   
    22    13    37 1   
    23    14    15 1   
    24    14    30 1   
    25    15    16 ar  
    26    15    17 ar  
    27    16    18 ar  
    28    16    35 1   
    29    17    19 ar  
    30    17    31 1   
    31    18    20 ar  
    32    18    34 1   
    33    19    20 ar  
    34    19    32 1   
    35    20    21 1   
    36    21    33 1   
    37    22    23 1   
    38    22    24 1   
@<TRIPOS>SUBSTRUCTURE
     1 DYG         1 TEMP              0 ****  ****    0 ROOT
