@<TRIPOS>MOLECULE
DYJ
   27    27     1     0     0
SMALL
bcc


@<TRIPOS>ATOM
      1 O            2.0870    -1.3530     1.3860 o          1 DYJ      -0.830300
      2 C            2.8050    -1.1130     0.4020 c          1 DYJ       0.920600
      3 N            1.0690     0.5840    -0.3120 nh         1 DYJ      -0.668400
      4 C10         -3.7640     0.3710     0.4120 c          1 DYJ       0.848600
      5 CA           2.4400     0.1050    -0.4740 c5         1 DYJ       0.095500
      6 CB           3.2950     1.3120    -0.0550 c5         1 DYJ      -0.074400
      7 CG           2.3830     2.5090    -0.2750 c5         1 DYJ      -0.100400
      8 CD           1.0240     1.9670     0.1350 c5         1 DYJ       0.227800
      9 C06         -0.0270    -0.1760    -0.4280 c2         1 DYJ       0.239800
     10 C07          0.1320    -1.5220    -1.0720 c3         1 DYJ      -0.054900
     11 C08         -1.2610     0.2940    -0.0100 ce         1 DYJ      -0.427200
     12 C09         -2.5090    -0.3950    -0.1210 c          1 DYJ       0.455300
     13 O11         -2.6790    -1.5210    -0.5890 o          1 DYJ      -0.631100
     14 O12         -4.8540    -0.1860     0.2050 o          1 DYJ      -0.839800
     15 O13         -3.5720     1.4560     0.9950 o          1 DYJ      -0.839800
     16 OXT          3.8420    -1.7080     0.0510 o          1 DYJ      -0.830300
     17 H1           2.6340    -0.1270    -1.5260 h1         1 DYJ       0.029700
     18 H2           3.5560     1.2420     1.0040 hc         1 DYJ       0.037700
     19 H3           4.2240     1.3610    -0.6220 hc         1 DYJ       0.037700
     20 H4           2.6740     3.3840     0.3060 hc         1 DYJ       0.020200
     21 H5           2.3680     2.7960    -1.3290 hc         1 DYJ       0.020200
     22 H6           0.1980     2.4990    -0.3390 h1         1 DYJ       0.041200
     23 H7           0.8810     2.0270     1.2200 h1         1 DYJ       0.041200
     24 H8          -0.0060    -2.3170    -0.3400 hc         1 DYJ       0.047033
     25 H9          -0.6280    -1.6610    -1.8360 hc         1 DYJ       0.047033
     26 H10          1.1050    -1.6560    -1.5350 hc         1 DYJ       0.047033
     27 H11         -1.3120     1.2600     0.4690 ha         1 DYJ       0.139000
@<TRIPOS>BOND
     1     1     2 1   
     2     2     5 1   
     3     2    16 1   
     4     3     5 1   
     5     3     8 1   
     6     3     9 1   
     7     4    12 1   
     8     4    14 1   
     9     4    15 1   
    10     5     6 1   
    11     5    17 1   
    12     6     7 1   
    13     6    18 1   
    14     6    19 1   
    15     7     8 1   
    16     7    20 1   
    17     7    21 1   
    18     8    22 1   
    19     8    23 1   
    20     9    10 1   
    21     9    11 2   
    22    10    24 1   
    23    10    25 1   
    24    10    26 1   
    25    11    12 1   
    26    11    27 1   
    27    12    13 2   
@<TRIPOS>SUBSTRUCTURE
     1 DYJ         1 TEMP              0 ****  ****    0 ROOT
