@<TRIPOS>MOLECULE
DYJ
   27    27     1     0     0
SMALL
No Charge or Current Charge


@<TRIPOS>ATOM
      1 O            2.2350    -0.9850     1.7740 o          1 DYJ      -0.725000
      2 C            2.6020    -1.1110     0.6090 c          1 DYJ       0.710000
      3 N            1.1060     0.6760    -0.5130 nh         1 DYJ      -0.668400
      4 C10         -3.7730     0.2110     0.7190 c          1 DYJ       0.638000
      5 CA           2.5060     0.1100    -0.4130 c5         1 DYJ       0.095500
      6 CB           3.2950     1.3430     0.1410 c5         1 DYJ      -0.074400
      7 CG           2.4690     2.5480    -0.3920 c5         1 DYJ      -0.100400
      8 CD           1.0140     2.0950    -0.1000 c5         1 DYJ       0.227800
      9 C06         -0.0320    -0.1450    -0.6130 c2         1 DYJ       0.239800
     10 C07          0.1590    -1.4600    -1.3680 c3         1 DYJ      -0.054900
     11 C08         -1.2080     0.2300    -0.0490 ce         1 DYJ      -0.477200
     12 C09         -2.5130    -0.5270    -0.0270 c          1 DYJ       0.455300
     13 O11         -2.6290    -1.6440    -0.5370 o          1 DYJ      -0.631100
     14 O12         -4.9060     0.0450     0.2700 o          1 DYJ      -0.734500
     15 O13         -3.5520     0.9060     1.7100 o          1 DYJ      -0.734500
     16 OXT          3.0740    -2.1690     0.2100 o          1 DYJ      -0.725000
     17 H1           2.8810    -0.2000    -1.3970 h1         1 DYJ       0.029700
     18 H2           3.3210     1.3580     1.2370 hc         1 DYJ       0.037700
     19 H3           4.3350     1.3570    -0.2040 hc         1 DYJ       0.037700
     20 H4           2.7220     3.4880     0.1100 hc         1 DYJ       0.020200
     21 H5           2.6320     2.6960    -1.4670 hc         1 DYJ       0.020200
     22 H6           0.2860     2.6630    -0.6950 h1         1 DYJ       0.041200
     23 H7           0.7610     2.1910     0.9650 h1         1 DYJ       0.041200
     24 H8           0.1310    -2.3150    -0.6830 hc         1 DYJ       0.047033
     25 H9          -0.6290    -1.5980    -2.1170 hc         1 DYJ       0.047033
     26 H10          1.0990    -1.5090    -1.9270 hc         1 DYJ       0.047033
     27 H11         -1.2810     1.1750     0.4790 ha         1 DYJ       0.189000
@<TRIPOS>BOND
     1     1     2 1   
     2     2     5 1   
     3     2    16 1   
     4     3     5 1   
     5     3     8 1   
     6     3     9 1   
     7     4    12 1   
     8     4    14 1   
     9     4    15 1   
    10     5     6 1   
    11     5    17 1   
    12     6     7 1   
    13     6    18 1   
    14     6    19 1   
    15     7     8 1   
    16     7    20 1   
    17     7    21 1   
    18     8    22 1   
    19     8    23 1   
    20     9    10 1   
    21     9    11 2   
    22    10    24 1   
    23    10    25 1   
    24    10    26 1   
    25    11    12 1   
    26    11    27 1   
    27    12    13 2   
@<TRIPOS>SUBSTRUCTURE
     1 DYJ         1 TEMP              0 ****  ****    0 ROOT
