@<TRIPOS>MOLECULE
DYK
   58    62     1     0     0
SMALL
bcc


@<TRIPOS>ATOM
      1 C            8.4670     2.0340    -0.7730 c3         1 DYK       0.154100
      2 N            7.7820     0.7770    -0.5830 n3         1 DYK      -0.721600
      3 O            4.8130    -0.1940     1.0760 os         1 DYK      -0.329900
      4 C1           7.6860     0.4350     0.8250 c6         1 DYK       0.168800
      5 N1          -0.7090    -0.2940     0.5520 nu         1 DYK      -0.737300
      6 O1           0.7650    -2.1660    -0.6670 os         1 DYK      -0.319900
      7 C2           7.0560    -0.9370     1.0110 c6         1 DYK      -0.088400
      8 N2          -0.9440     1.8430    -0.3020 nb         1 DYK      -0.764000
      9 C3           5.6970    -1.0370     0.3380 c6         1 DYK       0.154100
     10 N3          -2.8110     0.4220     0.0700 nb         1 DYK      -0.788000
     11 C4           5.8090    -0.5820    -1.1120 c6         1 DYK      -0.088400
     12 N4          -7.2660     1.2540    -0.6590 na         1 DYK      -0.151400
     13 C5           6.4770     0.7800    -1.2190 c6         1 DYK       0.168800
     14 N5          -7.5620    -2.1500     0.6760 nb         1 DYK      -0.656000
     15 C6           3.4820    -0.2540     0.8850 ca         1 DYK       0.181100
     16 C7           2.7270     0.7430     1.4980 ca         1 DYK      -0.195000
     17 C8           1.3480     0.7240     1.3900 ca         1 DYK      -0.049000
     18 C9           0.6900    -0.2530     0.6560 ca         1 DYK       0.086600
     19 C10          1.4540    -1.2460     0.0290 ca         1 DYK       0.156100
     20 C11          2.8420    -1.2530     0.1520 ca         1 DYK      -0.298000
     21 C12          1.4650    -3.2240    -1.2910 c3         1 DYK       0.127700
     22 C13         -1.5050     0.7010     0.0870 ca         1 DYK       0.920900
     23 C14         -1.7850     2.7750    -0.7360 ca         1 DYK       0.477200
     24 C15         -3.1510     2.6040    -0.7930 ca         1 DYK      -0.440600
     25 C16         -3.6410     1.3620    -0.3660 ca         1 DYK       0.602100
     26 C17         -5.0560     1.0420    -0.3750 cc         1 DYK      -0.235000
     27 C18         -6.0750     1.8700    -0.7970 cd         1 DYK      -0.063100
     28 C19         -7.0710     0.0030    -0.1410 ca         1 DYK      -0.193500
     29 C20         -5.6880    -0.1730     0.0540 ca         1 DYK      -0.027800
     30 C21         -5.2720    -1.3990     0.5820 ca         1 DYK      -0.174300
     31 C22         -6.2460    -2.3330     0.8690 ca         1 DYK       0.358200
     32 C23         -7.9780    -1.0010     0.1790 ca         1 DYK       0.400200
     33 H            9.4740     1.9790    -0.3550 h1         1 DYK       0.030033
     34 HA           8.5580     2.2530    -1.8380 h1         1 DYK       0.030033
     35 HB           7.9550     2.8870    -0.3000 h1         1 DYK       0.030033
     36 H1           8.6920     0.4270     1.2520 h1         1 DYK       0.037950
     37 H1A          7.1130     1.1920     1.3870 h1         1 DYK       0.037950
     38 HN1         -1.1760    -1.1690     0.7300 hn         1 DYK       0.460800
     39 H2           7.7030    -1.6960     0.5650 hc         1 DYK       0.057200
     40 H2A          6.9720    -1.1740     2.0740 hc         1 DYK       0.057200
     41 H3           5.3500    -2.0750     0.3900 h1         1 DYK       0.043700
     42 H4           6.4070    -1.3230    -1.6500 hc         1 DYK       0.057200
     43 H4A          4.8320    -0.5520    -1.5990 hc         1 DYK       0.057200
     44 H5           5.8180     1.5570    -0.7940 h1         1 DYK       0.037950
     45 H5A          6.6070     1.0330    -2.2750 h1         1 DYK       0.037950
     46 H7           3.2210     1.5190     2.0680 ha         1 DYK       0.148000
     47 H8           0.7660     1.4900     1.8850 ha         1 DYK       0.149000
     48 H11          3.4160    -2.0310    -0.3300 ha         1 DYK       0.139000
     49 H12          2.1660    -2.8620    -2.0480 h1         1 DYK       0.041033
     50 H12A         2.0100    -3.8350    -0.5680 h1         1 DYK       0.041033
     51 H12B         0.7160    -3.8430    -1.7780 h1         1 DYK       0.041033
     52 H14         -1.3410     3.7100    -1.0580 h4         1 DYK       0.017100
     53 H15         -3.7930     3.3960    -1.1490 ha         1 DYK       0.143000
     54 H18         -6.0280     2.8710    -1.1960 h4         1 DYK       0.167000
     55 H21         -4.2300    -1.6170     0.7600 ha         1 DYK       0.162000
     56 H22         -5.9600    -3.2950     1.2800 h4         1 DYK       0.017100
     57 H23         -9.0440    -0.8680     0.0280 h4         1 DYK       0.016100
     58 HN4         -8.1550     1.6630    -0.8980 hn         1 DYK       0.305700
@<TRIPOS>BOND
     1     1     2 1   
     2     1    33 1   
     3     1    34 1   
     4     1    35 1   
     5     2     4 1   
     6     2    13 1   
     7     3     9 1   
     8     3    15 1   
     9     4     7 1   
    10     4    36 1   
    11     4    37 1   
    12     5    18 1   
    13     5    22 1   
    14     5    38 1   
    15     6    19 1   
    16     6    21 1   
    17     7     9 1   
    18     7    39 1   
    19     7    40 1   
    20     8    22 ar  
    21     8    23 ar  
    22     9    11 1   
    23     9    41 1   
    24    10    22 ar  
    25    10    25 ar  
    26    11    13 1   
    27    11    42 1   
    28    11    43 1   
    29    12    27 1   
    30    12    28 1   
    31    12    58 1   
    32    13    44 1   
    33    13    45 1   
    34    14    31 ar  
    35    14    32 ar  
    36    15    16 ar  
    37    15    20 ar  
    38    16    17 ar  
    39    16    46 1   
    40    17    18 ar  
    41    17    47 1   
    42    18    19 ar  
    43    19    20 ar  
    44    20    48 1   
    45    21    49 1   
    46    21    50 1   
    47    21    51 1   
    48    23    24 ar  
    49    23    52 1   
    50    24    25 ar  
    51    24    53 1   
    52    25    26 1   
    53    26    27 2   
    54    26    29 1   
    55    27    54 1   
    56    28    29 ar  
    57    28    32 ar  
    58    29    30 ar  
    59    30    31 ar  
    60    30    55 1   
    61    31    56 1   
    62    32    57 1   
@<TRIPOS>SUBSTRUCTURE
     1 DYK         1 TEMP              0 ****  ****    0 ROOT
