@<TRIPOS>MOLECULE
DYK
   58    62     1     0     0
SMALL
No Charge or Current Charge


@<TRIPOS>ATOM
      1 C            8.7480     1.7690    -1.0550 c3         1 DYK       0.154100
      2 N            7.9870     0.5560    -0.6870 n3         1 DYK      -0.721600
      3 O            4.8870    -0.0930     1.0900 os         1 DYK      -0.353100
      4 C1           7.8730     0.3870     0.7880 c6         1 DYK       0.168800
      5 N1          -0.6760     0.0930     0.2150 nu         1 DYK      -0.930900
      6 O1           0.7530    -2.1370    -0.5670 os         1 DYK      -0.343100
      7 C2           7.1760    -0.9460     1.1510 c6         1 DYK      -0.088400
      8 N2          -1.2650     2.3740     0.1490 nb         1 DYK      -0.238000
      9 C3           5.7840    -1.0540     0.4870 c6         1 DYK       0.177300
     10 N3          -2.8990     0.6220     0.0060 nb         1 DYK      -0.262000
     11 C4           5.9250    -0.8240    -1.0410 c6         1 DYK      -0.088400
     12 N4          -7.4320     1.0220    -0.9600 na         1 DYK      -0.201700
     13 C5           6.6520     0.5070    -1.3440 c6         1 DYK       0.168800
     14 N5          -7.4600    -2.5030     0.2750 nb         1 DYK      -0.656000
     15 C6           3.5270    -0.0910     0.8490 ca         1 DYK       0.181100
     16 C7           2.8030     1.0310     1.2720 ca         1 DYK      -0.177000
     17 C8           1.4150     1.1090     1.0690 ca         1 DYK      -0.031000
     18 C9           0.7210     0.0590     0.4310 ca         1 DYK       0.225000
     19 C10          1.4510    -1.0940     0.0290 ca         1 DYK       0.156100
     20 C11          2.8490    -1.1650     0.2370 ca         1 DYK      -0.280000
     21 C12          1.3950    -3.3410    -1.0220 c3         1 DYK       0.150900
     22 C13         -1.6450     1.0850     0.1280 ca         1 DYK       0.394900
     23 C14         -2.2450     3.2900     0.0490 ca         1 DYK       0.148900
     24 C15         -3.5890     2.9100    -0.0780 ca         1 DYK      -0.292000
     25 C16         -3.8870     1.5330    -0.0980 ca         1 DYK       0.273800
     26 C17         -5.2680     1.0540    -0.2320 cc         1 DYK      -0.235000
     27 C18         -6.2550     1.8070    -0.8630 cd         1 DYK      -0.113100
     28 C19         -7.1140    -0.2180    -0.4160 ca         1 DYK      -0.128200
     29 C20         -5.8240    -0.2450     0.0260 ca         1 DYK      -0.027800
     30 C21         -5.3050    -1.4030     0.6200 ca         1 DYK      -0.091000
     31 C22         -6.1710    -2.5130     0.7190 ca         1 DYK       0.292900
     32 C23         -7.9290    -1.3580    -0.2890 ca         1 DYK       0.334900
     33 H            9.7500     1.7500    -0.6050 h1         1 DYK       0.030033
     34 HA           8.8680     1.8360    -2.1440 h1         1 DYK       0.030033
     35 HB           8.2330     2.6750    -0.7090 h1         1 DYK       0.030033
     36 H1           8.8720     0.3970     1.2500 h1         1 DYK       0.037950
     37 H1A          7.3070     1.2230     1.2250 h1         1 DYK       0.037950
     38 HN1         -1.0440    -0.8220    -0.0510 hn         1 DYK       0.516000
     39 H2           7.8040    -1.7860     0.8260 hc         1 DYK       0.057200
     40 H2A          7.0790    -1.0320     2.2410 hc         1 DYK       0.057200
     41 H3           5.4010    -2.0660     0.6820 h1         1 DYK       0.043700
     42 H4           6.4910    -1.6540    -1.4840 hc         1 DYK       0.057200
     43 H4A          4.9440    -0.8280    -1.5320 hc         1 DYK       0.057200
     44 H5           6.0260     1.3460    -1.0030 h1         1 DYK       0.037950
     45 H5A          6.7600     0.6080    -2.4340 h1         1 DYK       0.037950
     46 H7           3.3230     1.8490     1.7630 ha         1 DYK       0.130000
     47 H8           0.8870     1.9840     1.4300 ha         1 DYK       0.131000
     48 H11          3.3960    -2.0480    -0.0680 ha         1 DYK       0.121000
     49 H12          2.1490    -3.1170    -1.7880 h1         1 DYK       0.041033
     50 H12A         1.8820    -3.8630    -0.1880 h1         1 DYK       0.041033
     51 H12B         0.6560    -4.0220    -1.4630 h1         1 DYK       0.041033
     52 H14         -1.9480     4.3370     0.0710 h4         1 DYK       0.017100
     53 H15         -4.3660     3.6640    -0.1460 ha         1 DYK       0.125000
     54 H18         -6.2100     2.8160    -1.2680 h4         1 DYK       0.217000
     55 H21         -4.2890    -1.4580     0.9960 ha         1 DYK       0.144000
     56 H22         -5.8240    -3.4420     1.1700 h4         1 DYK       0.017100
     57 H23         -8.9620    -1.3620    -0.6370 h4         1 DYK       0.016100
     58 HN4         -8.3180     1.3020    -1.3740 hn         1 DYK       0.356000
@<TRIPOS>BOND
     1     1     2 1   
     2     1    33 1   
     3     1    34 1   
     4     1    35 1   
     5     2     4 1   
     6     2    13 1   
     7     3     9 1   
     8     3    15 1   
     9     4     7 1   
    10     4    36 1   
    11     4    37 1   
    12     5    18 1   
    13     5    22 1   
    14     5    38 1   
    15     6    19 1   
    16     6    21 1   
    17     7     9 1   
    18     7    39 1   
    19     7    40 1   
    20     8    22 ar  
    21     8    23 ar  
    22     9    11 1   
    23     9    41 1   
    24    10    22 ar  
    25    10    25 ar  
    26    11    13 1   
    27    11    42 1   
    28    11    43 1   
    29    12    27 1   
    30    12    28 1   
    31    12    58 1   
    32    13    44 1   
    33    13    45 1   
    34    14    31 ar  
    35    14    32 ar  
    36    15    16 ar  
    37    15    20 ar  
    38    16    17 ar  
    39    16    46 1   
    40    17    18 ar  
    41    17    47 1   
    42    18    19 ar  
    43    19    20 ar  
    44    20    48 1   
    45    21    49 1   
    46    21    50 1   
    47    21    51 1   
    48    23    24 ar  
    49    23    52 1   
    50    24    25 ar  
    51    24    53 1   
    52    25    26 1   
    53    26    27 2   
    54    26    29 1   
    55    27    54 1   
    56    28    29 ar  
    57    28    32 ar  
    58    29    30 ar  
    59    30    31 ar  
    60    30    55 1   
    61    31    56 1   
    62    32    57 1   
@<TRIPOS>SUBSTRUCTURE
     1 DYK         1 TEMP              0 ****  ****    0 ROOT
