@<TRIPOS>MOLECULE
DYL
   16    15     1     0     0
SMALL
No Charge or Current Charge


@<TRIPOS>ATOM
      1 N          -26.7560    25.9080    -3.6980 n8         1 DYL      -0.891800
      2 CA         -25.9990    24.6130    -3.5070 c3         1 DYL       0.025500
      3 C          -25.7900    24.0960    -2.0100 c          1 DYL       0.929600
      4 O          -26.7690    23.7670    -1.3440 o          1 DYL      -0.833800
      5 CB         -26.6070    23.5030    -4.4030 c3         1 DYL      -0.017200
      6 CG         -25.7390    22.2610    -4.4640 c2         1 DYL      -0.081200
      7 CD         -26.0940    21.0420    -4.0340 c2         1 DYL      -0.278000
      8 O1         -24.6610    24.1450    -1.5280 o          1 DYL      -0.833800
      9 H1         -26.2590    26.6650    -3.2160 hn         1 DYL       0.324300
     10 H2         -26.7310    26.1730    -4.6880 hn         1 DYL       0.324300
     11 H4         -24.9950    24.8170    -3.9050 h1         1 DYL      -0.006300
     12 H5         -26.7420    23.8920    -5.4200 hc         1 DYL       0.026200
     13 H6         -27.6090    23.2490    -4.0340 hc         1 DYL       0.026200
     14 H7         -24.7550    22.4190    -4.9080 ha         1 DYL       0.103000
     15 H8         -25.4140    20.1950    -4.1150 ha         1 DYL       0.091000
     16 H9         -27.0710    20.8560    -3.5890 ha         1 DYL       0.091000
@<TRIPOS>BOND
     1     1     2 1   
     2     1     9 1   
     3     1    10 1   
     4     2     3 1   
     5     2     5 1   
     6     2    11 1   
     7     3     4 1   
     8     3     8 1   
     9     5     6 1   
    10     5    12 1   
    11     5    13 1   
    12     6     7 2   
    13     6    14 1   
    14     7    15 1   
    15     7    16 1   
@<TRIPOS>SUBSTRUCTURE
     1 DYL         1 TEMP              0 ****  ****    0 ROOT
