@<TRIPOS>MOLECULE
DYL
   16    15     1     0     0
SMALL
bcc


@<TRIPOS>ATOM
      1 N          -26.9060    25.7610    -3.7480 n8         1 DYL      -0.891800
      2 CA         -26.0070    24.6400    -3.5090 c3         1 DYL       0.025500
      3 C          -25.8190    24.3760    -1.9970 c          1 DYL       0.929600
      4 O          -26.2740    25.2230    -1.2030 o          1 DYL      -0.833800
      5 CB         -26.5480    23.4150    -4.2570 c3         1 DYL      -0.017200
      6 CG         -25.6280    22.2400    -4.3460 c2         1 DYL      -0.081200
      7 CD         -26.0050    20.9670    -4.2950 c2         1 DYL      -0.278000
      8 O1         -25.1890    23.3410    -1.7050 o          1 DYL      -0.833800
      9 H1         -26.7240    26.4750    -3.0560 hn         1 DYL       0.324300
     10 H2         -26.7130    26.1670    -4.6540 hn         1 DYL       0.324300
     11 H4         -24.9930    24.8340    -3.9030 h1         1 DYL      -0.006300
     12 H5         -26.7620    23.7400    -5.2840 hc         1 DYL       0.026200
     13 H6         -27.5100    23.1150    -3.8330 hc         1 DYL       0.026200
     14 H7         -24.5820    22.4660    -4.5320 ha         1 DYL       0.103000
     15 H8         -25.2960    20.1590    -4.4240 ha         1 DYL       0.091000
     16 H9         -27.0350    20.6830    -4.1140 ha         1 DYL       0.091000
@<TRIPOS>BOND
     1     1     2 1   
     2     1     9 1   
     3     1    10 1   
     4     2     3 1   
     5     2     5 1   
     6     2    11 1   
     7     3     4 1   
     8     3     8 1   
     9     5     6 1   
    10     5    12 1   
    11     5    13 1   
    12     6     7 2   
    13     6    14 1   
    14     7    15 1   
    15     7    16 1   
@<TRIPOS>SUBSTRUCTURE
     1 DYL         1 TEMP              0 ****  ****    0 ROOT
