@<TRIPOS>MOLECULE
DYM
   36    36     1     0     0
SMALL
abcg2


@<TRIPOS>ATOM
      1 C1          -1.4520    -3.6930    -0.2010 c          1 DYM       0.725200
      2 C2          -1.5090    -2.1930     0.0700 ce         1 DYM       0.060900
      3 C3          -2.6080    -1.5550     0.4760 c2         1 DYM      -0.434200
      4 C4          -2.6790    -0.0700     0.6770 c6         1 DYM       0.223500
      5 C5          -1.4510     0.5880     0.0590 c6         1 DYM       0.079700
      6 C6          -0.2250    -0.2560     0.4070 c6         1 DYM       0.370300
      7 C8           3.2360     0.7910    -0.0470 c3         1 DYM       0.169300
      8 C9           4.5330     0.4250     0.6570 c3         1 DYM       0.121600
      9 C11         -0.8330     4.3030     0.4210 c3         1 DYM      -0.181100
     10 N5          -1.2970     1.9420     0.5150 ns         1 DYM      -0.488900
     11 O1A         -0.3640    -4.1340    -0.6040 o          1 DYM      -0.695000
     12 O1B         -2.5050    -4.3240     0.0050 o          1 DYM      -0.695000
     13 O4          -3.8180     0.4990     0.0710 oh         1 DYM      -0.656000
     14 O6          -0.3360    -1.5500    -0.1520 os         1 DYM      -0.343100
     15 O7           0.8970     0.3390    -0.1070 os         1 DYM      -0.423000
     16 O8           3.3600     0.7770    -1.4490 oh         1 DYM      -0.685000
     17 O9           5.5360     1.3310     0.2650 oh         1 DYM      -0.647000
     18 O10         -1.0080     2.9090    -1.5100 o          1 DYM      -0.594100
     19 H3          -3.4970    -2.1410     0.6670 ha         1 DYM       0.207000
     20 H4          -2.6840     0.1470     1.7570 h1         1 DYM       0.000700
     21 H5          -1.5640     0.6020    -1.0280 h1         1 DYM       0.126700
     22 H6          -0.1520    -0.3610     1.5060 h2         1 DYM       0.008700
     23 H71          2.0750    -0.0940     1.5350 h1         1 DYM       0.035700
     24 H72          2.3220    -1.1550     0.1430 h1         1 DYM       0.035700
     25 H8           2.9770     1.8220     0.2180 h1         1 DYM       0.084700
     26 H91          4.3630     0.4510     1.7410 h1         1 DYM       0.019700
     27 H92          4.8020    -0.6120     0.4030 h1         1 DYM       0.019700
     28 H111        -1.4650     5.0710    -0.0240 hc         1 DYM       0.049367
     29 H112        -1.0380     4.2610     1.4900 hc         1 DYM       0.049367
     30 H113         0.2030     4.6160     0.2850 hc         1 DYM       0.049367
     31 HN5         -1.2920     2.0950     1.5110 hn         1 DYM       0.294500
     32 HO4         -4.5930     0.2170     0.5660 ho         1 DYM       0.435000
     33 HO8          3.6500    -0.1000    -1.7250 ho         1 DYM       0.499000
     34 HO9          6.3490     1.0840     0.7150 ho         1 DYM       0.433000
     35 C7           2.1190    -0.1180     0.4380 c3         1 DYM       0.132600
     36 C10         -1.0520     2.9920    -0.2910 c          1 DYM       0.610100
@<TRIPOS>BOND
     1     1     2 1   
     2     1    11 1   
     3     1    12 1   
     4     2     3 2   
     5     2    14 1   
     6     3     4 1   
     7     3    19 1   
     8     4     5 1   
     9     4    13 1   
    10     4    20 1   
    11     5     6 1   
    12     5    10 1   
    13     5    21 1   
    14     6    14 1   
    15     6    15 1   
    16     6    22 1   
    17     7     8 1   
    18     7    16 1   
    19     7    25 1   
    20     7    35 1   
    21     8    17 1   
    22     8    26 1   
    23     8    27 1   
    24     9    28 1   
    25     9    29 1   
    26     9    30 1   
    27     9    36 1   
    28    10    31 1   
    29    10    36 1   
    30    13    32 1   
    31    15    35 1   
    32    16    33 1   
    33    17    34 1   
    34    18    36 2   
    35    23    35 1   
    36    24    35 1   
@<TRIPOS>SUBSTRUCTURE
     1 DYM         1 TEMP              0 ****  ****    0 ROOT
