@<TRIPOS>MOLECULE
DYM
   36    36     1     0     0
SMALL
No Charge or Current Charge


@<TRIPOS>ATOM
      1 C1          -1.5110    -3.7380    -0.1540 c          1 DYM       0.725200
      2 C2          -1.5670    -2.2250     0.1240 ce         1 DYM       0.060900
      3 C3          -2.7110    -1.5730     0.4700 c2         1 DYM      -0.434200
      4 C4          -2.7610    -0.0860     0.7250 c6         1 DYM       0.223500
      5 C5          -1.5420     0.6300     0.0860 c6         1 DYM       0.079700
      6 C6          -0.2830    -0.1800     0.5040 c6         1 DYM       0.370300
      7 C8           3.3470     0.6800    -0.1210 c3         1 DYM       0.169300
      8 C9           4.7010     0.2970     0.5300 c3         1 DYM       0.121600
      9 C11         -0.9850     4.4470     0.4230 c3         1 DYM      -0.181100
     10 N5          -1.4770     2.0570     0.4980 ns         1 DYM      -0.488900
     11 O1A         -0.4370    -4.2490    -0.4520 o          1 DYM      -0.695000
     12 O1B         -2.5440    -4.3940    -0.0670 o          1 DYM      -0.695000
     13 O4          -3.9840     0.4110     0.1920 oh         1 DYM      -0.656000
     14 O6          -0.3610    -1.5370     0.0160 os         1 DYM      -0.343100
     15 O7           0.9220     0.4280     0.0010 os         1 DYM      -0.423000
     16 O8           3.4580     0.4550    -1.5410 oh         1 DYM      -0.685000
     17 O9           5.7790     0.9710    -0.1430 oh         1 DYM      -0.647000
     18 O10         -0.6210     2.9380    -1.4240 o          1 DYM      -0.594100
     19 H3          -3.6490    -2.1200     0.5660 ha         1 DYM       0.207000
     20 H4          -2.7370     0.0780     1.8120 h1         1 DYM       0.000700
     21 H5          -1.6350     0.5710    -1.0080 h1         1 DYM       0.126700
     22 H6          -0.2370    -0.2000     1.6030 h2         1 DYM       0.008700
     23 H71          2.2050    -0.0470     1.5800 h1         1 DYM       0.035700
     24 H72          2.2600    -1.1810     0.2130 h1         1 DYM       0.035700
     25 H8           3.1720     1.7460     0.0820 h1         1 DYM       0.084700
     26 H91          4.6810     0.5780     1.5920 h1         1 DYM       0.019700
     27 H92          4.8400    -0.7910     0.4750 h1         1 DYM       0.019700
     28 H111        -0.6070     5.2490    -0.2210 hc         1 DYM       0.049367
     29 H112        -1.9930     4.6680     0.7930 hc         1 DYM       0.049367
     30 H113        -0.4090     4.3680     1.3520 hc         1 DYM       0.049367
     31 HN5         -1.7890     2.2990     1.4300 hn         1 DYM       0.294500
     32 HO4         -4.7010    -0.0260     0.7000 ho         1 DYM       0.435000
     33 HO8          4.4030     0.6630    -1.7380 ho         1 DYM       0.499000
     34 HO9          6.6060     0.7550     0.3450 ho         1 DYM       0.433000
     35 C7           2.1630    -0.1210     0.4860 c3         1 DYM       0.132600
     36 C10         -0.9960     3.0900    -0.2710 c          1 DYM       0.610100
@<TRIPOS>BOND
     1     1     2 1   
     2     1    11 1   
     3     1    12 1   
     4     2     3 2   
     5     2    14 1   
     6     3     4 1   
     7     3    19 1   
     8     4     5 1   
     9     4    13 1   
    10     4    20 1   
    11     5     6 1   
    12     5    10 1   
    13     5    21 1   
    14     6    14 1   
    15     6    15 1   
    16     6    22 1   
    17     7     8 1   
    18     7    16 1   
    19     7    25 1   
    20     7    35 1   
    21     8    17 1   
    22     8    26 1   
    23     8    27 1   
    24     9    28 1   
    25     9    29 1   
    26     9    30 1   
    27     9    36 1   
    28    10    31 1   
    29    10    36 1   
    30    13    32 1   
    31    15    35 1   
    32    16    33 1   
    33    17    34 1   
    34    18    36 2   
    35    23    35 1   
    36    24    35 1   
@<TRIPOS>SUBSTRUCTURE
     1 DYM         1 TEMP              0 ****  ****    0 ROOT
