@<TRIPOS>MOLECULE
DYO
   69    74     1     0     0
SMALL
No Charge or Current Charge


@<TRIPOS>ATOM
      1 C13         28.8160    -1.1500   -13.4960 ca         1 DYO      -0.052300
      2 C15         30.0280    -1.4310   -15.6000 ca         1 DYO      -0.062000
      3 C17         28.0700     0.0010   -15.5210 ca         1 DYO      -0.075000
      4 C22         36.6020     1.5260    -7.5130 cc         1 DYO      -0.082000
      5 C24         37.2770     2.3860    -6.5340 ca         1 DYO      -0.024000
      6 C26         37.4540     4.5040    -5.3240 ca         1 DYO      -0.101500
      7 C28         39.1000     2.7600    -4.9470 ca         1 DYO      -0.101500
      8 C01         35.2670     1.2580    -7.5760 cd         1 DYO       0.057400
      9 C02         35.0500     0.3410    -8.5980 cd         1 DYO       0.145500
     10 C03         33.6780    -0.1310    -8.8760 c          1 DYO       0.502500
     11 C07         33.1010     1.3680    -6.9940 cc         1 DYO       0.493800
     12 C08         31.2910     0.0990    -8.1580 c3         1 DYO       0.064000
     13 C09         30.3860     1.1450    -8.9100 c6         1 DYO       0.167000
     14 C12         28.6090    -1.4290   -12.0070 c3         1 DYO       0.207100
     15 C14         29.8780    -1.7210   -14.2330 ca         1 DYO       0.111000
     16 C16         29.1270    -0.5670   -16.2680 ca         1 DYO      -0.137500
     17 C18         27.9200    -0.2870   -14.1540 ca         1 DYO      -0.093000
     18 C25         36.7930     3.6790    -6.2510 ca         1 DYO      -0.087000
     19 C27         38.6130     4.0500    -4.6650 ca         1 DYO      -0.075300
     20 C29         38.4390     1.9350    -5.8740 ca         1 DYO      -0.087000
     21 C30         39.3350     4.9450    -3.6670 c3         1 DYO       0.195100
     22 C32         30.7890     1.3070   -10.4020 c6         1 DYO      -0.085400
     23 C33         30.4440     0.0520   -11.2400 c6         1 DYO       0.161300
     24 C34         28.8900     0.7330    -8.8500 c6         1 DYO      -0.085400
     25 C35         28.5900    -0.5120    -9.7200 c6         1 DYO       0.161300
     26 C36         29.2850    -0.2630   -17.7030 cc         1 DYO       0.611500
     27 C38         30.1040    -0.3100   -19.6220 cd         1 DYO       0.474900
     28 N04         34.3390     1.8090    -6.7150 nd         1 DYO      -0.570100
     29 N05         32.7290     0.4610    -8.0090 n          1 DYO      -0.343300
     30 N10         28.9990    -0.2940   -11.1340 n3         1 DYO      -0.715600
     31 N20         36.1760    -0.0170    -9.2080 nc         1 DYO      -0.450800
     32 N21         37.1390     0.7150    -8.5190 na         1 DYO       0.167800
     33 N31         38.9160     4.6630    -2.2810 n8         1 DYO      -0.998200
     34 N37         30.3070    -0.8150   -18.4190 nc         1 DYO      -0.711000
     35 N40         28.4720     0.5390   -18.3690 nd         1 DYO      -0.374300
     36 O39         29.0180     0.5140   -19.6710 os         1 DYO      -0.084700
     37 Cl1         31.0560    -2.7980   -13.4790 cl         1 DYO      -0.194000
     38 H1          30.8570    -1.8870   -16.1370 ha         1 DYO       0.151000
     39 H2          27.3570     0.6740   -15.9930 ha         1 DYO       0.135000
     40 H3          37.0660     5.5000    -5.1220 ha         1 DYO       0.121500
     41 H4          39.9920     2.3940    -4.4430 ha         1 DYO       0.121500
     42 H5          32.2720     1.7160    -6.3900 h5         1 DYO       0.042800
     43 H6          30.8750    -0.0360    -7.1500 h1         1 DYO       0.065700
     44 H7          31.2030    -0.8770    -8.6490 h1         1 DYO       0.065700
     45 H8          27.5420    -1.6480   -11.8620 h1         1 DYO       0.049700
     46 H9          29.1450    -2.3380   -11.7070 h1         1 DYO       0.049700
     47 H10         27.1030     0.1670   -13.5980 ha         1 DYO       0.130000
     48 H11         38.6240     0.3760    -9.9800 h1         1 DYO       0.065367
     49 H12         39.0580     1.5640    -8.7190 h1         1 DYO       0.065367
     50 H13         39.0330    -0.1840    -8.3310 h1         1 DYO       0.065367
     51 H14         35.9080     4.0520    -6.7590 ha         1 DYO       0.121000
     52 H15         38.8250     0.9380    -6.0680 ha         1 DYO       0.121000
     53 H16         40.4200     4.7910    -3.7470 h1         1 DYO       0.035200
     54 H17         39.1250     6.0000    -3.8930 h1         1 DYO       0.035200
     55 H18         31.8610     1.5290   -10.4910 hc         1 DYO       0.059450
     56 H19         30.2650     2.1680   -10.8380 hc         1 DYO       0.059450
     57 H20         31.0620    -0.7970   -10.9150 h1         1 DYO       0.043950
     58 H21         30.7160     0.2580   -12.2860 h1         1 DYO       0.043950
     59 H22         28.2590     1.5610    -9.2010 hc         1 DYO       0.059450
     60 H23         27.5120    -0.7210    -9.6660 h1         1 DYO       0.043950
     61 H24         30.6790    -0.4720   -20.5270 h5         1 DYO       0.089100
     62 H25         39.3550     5.3490    -1.6550 hn         1 DYO       0.397500
     63 H26         37.9120     4.8640    -2.1960 hn         1 DYO       0.397500
     64 H28         29.9530     3.0460    -8.7370 ho         1 DYO       0.437000
     65 H29         28.5890     0.5380    -7.8120 hc         1 DYO       0.059450
     66 H30         29.1050    -1.3890    -9.3010 h1         1 DYO       0.043950
     67 O11         30.5280     2.4120    -8.2570 oh         1 DYO      -0.654000
     68 O06         33.3860    -0.9410    -9.7500 o          1 DYO      -0.517000
     69 C23         38.5510     0.6110    -8.9110 c3         1 DYO       0.062900
@<TRIPOS>BOND
     1     1    14 1   
     2     1    15 ar  
     3     1    17 ar  
     4     2    15 ar  
     5     2    16 ar  
     6     2    38 1   
     7     3    16 ar  
     8     3    17 ar  
     9     3    39 1   
    10     4     5 1   
    11     4     8 2   
    12     4    32 1   
    13     5    18 ar  
    14     5    20 ar  
    15     6    18 ar  
    16     6    19 ar  
    17     6    40 1   
    18     7    19 ar  
    19     7    20 ar  
    20     7    41 1   
    21     8     9 1   
    22     8    28 1   
    23     9    10 1   
    24     9    31 2   
    25    10    29 1   
    26    10    68 2   
    27    11    28 2   
    28    11    29 1   
    29    11    42 1   
    30    12    13 1   
    31    12    29 1   
    32    12    43 1   
    33    12    44 1   
    34    13    22 1   
    35    13    24 1   
    36    13    67 1   
    37    14    30 1   
    38    14    45 1   
    39    14    46 1   
    40    15    37 1   
    41    16    26 1   
    42    17    47 1   
    43    18    51 1   
    44    19    21 1   
    45    20    52 1   
    46    21    33 1   
    47    21    53 1   
    48    21    54 1   
    49    22    23 1   
    50    22    55 1   
    51    22    56 1   
    52    23    30 1   
    53    23    57 1   
    54    23    58 1   
    55    24    25 1   
    56    24    59 1   
    57    24    65 1   
    58    25    30 1   
    59    25    60 1   
    60    25    66 1   
    61    26    34 1   
    62    26    35 2   
    63    27    34 2   
    64    27    36 1   
    65    27    61 1   
    66    31    32 1   
    67    32    69 1   
    68    33    62 1   
    69    33    63 1   
    70    35    36 1   
    71    48    69 1   
    72    49    69 1   
    73    50    69 1   
    74    64    67 1   
@<TRIPOS>SUBSTRUCTURE
     1 DYO         1 TEMP              0 ****  ****    0 ROOT
