@<TRIPOS>MOLECULE
DYO
   69    74     1     0     0
SMALL
abcg2


@<TRIPOS>ATOM
      1 C13         29.0540    -1.1010   -13.4500 ca         1 DYO      -0.052300
      2 C15         30.3520    -1.2790   -15.4960 ca         1 DYO      -0.062000
      3 C17         28.6180     0.3770   -15.3270 ca         1 DYO      -0.075000
      4 C22         36.2190     1.3600    -7.4210 cc         1 DYO      -0.082000
      5 C24         37.0250     2.3450    -6.7040 ca         1 DYO      -0.024000
      6 C26         37.3020     4.6100    -5.9200 ca         1 DYO      -0.101500
      7 C28         38.9430     2.9610    -5.3710 ca         1 DYO      -0.101500
      8 C01         34.8530     1.1150    -7.3590 cd         1 DYO       0.057400
      9 C02         34.6360     0.0650    -8.2580 cd         1 DYO       0.145500
     10 C03         33.3100    -0.4610    -8.4800 c          1 DYO       0.502500
     11 C07         32.6970     1.2100    -6.8190 cc         1 DYO       0.493800
     12 C08         30.9450    -0.0790    -7.9030 c3         1 DYO       0.064000
     13 C09         30.1930     0.9450    -8.7780 c6         1 DYO       0.167000
     14 C12         28.7140    -1.4820   -12.0350 c3         1 DYO       0.207100
     15 C14         30.0590    -1.6960   -14.2060 ca         1 DYO       0.111000
     16 C16         29.6330    -0.2350   -16.0620 ca         1 DYO      -0.137500
     17 C18         28.3470    -0.0550   -14.0460 ca         1 DYO      -0.093000
     18 C25         36.5720     3.6600    -6.6180 ca         1 DYO      -0.087000
     19 C27         38.4990     4.2800    -5.2930 ca         1 DYO      -0.075300
     20 C29         38.2190     2.0060    -6.0640 ca         1 DYO      -0.087000
     21 C30         39.2980     5.3250    -4.5580 c3         1 DYO       0.195100
     22 C32         30.7600     1.0640   -10.1900 c6         1 DYO      -0.085400
     23 C33         30.4570    -0.1470   -11.0560 c6         1 DYO       0.161300
     24 C34         28.7210     0.5320    -8.8820 c6         1 DYO      -0.085400
     25 C35         28.4940    -0.6610    -9.7980 c6         1 DYO       0.161300
     26 C36         29.9600     0.2080   -17.4160 cc         1 DYO       0.611500
     27 C38         30.8900     0.3360   -19.2560 cd         1 DYO       0.474900
     28 N04         33.8690     1.6780    -6.5970 nd         1 DYO      -0.570100
     29 N05         32.3610     0.2320    -7.7290 n          1 DYO      -0.343300
     30 N10         29.0270    -0.3980   -11.1210 n3         1 DYO      -0.715600
     31 N20         35.7610    -0.3230    -8.8410 nc         1 DYO      -0.450800
     32 N21         36.6890     0.4660    -8.3290 na         1 DYO       0.167800
     33 N31         39.7570     4.8380    -3.2680 n8         1 DYO      -0.998200
     34 N37         30.9520    -0.3520   -18.1720 nc         1 DYO      -0.711000
     35 N40         29.3380     1.1800   -18.0160 nd         1 DYO      -0.374300
     36 O39         29.9510     1.2650   -19.2310 os         1 DYO      -0.084700
     37 CL1         31.0250    -2.9820   -13.5500 cl         1 DYO      -0.194000
     38 H1          31.1440    -1.7600   -16.0530 ha         1 DYO       0.151000
     39 H2          28.0450     1.1910   -15.7520 ha         1 DYO       0.135000
     40 H3          36.9310     5.6270    -5.8630 ha         1 DYO       0.121500
     41 H4          39.8610     2.6750    -4.8740 ha         1 DYO       0.121500
     42 H5          31.8670     1.5820    -6.2330 h5         1 DYO       0.042800
     43 H6          30.4800    -0.1040    -6.9140 h1         1 DYO       0.065700
     44 H7          30.8660    -1.0840    -8.3100 h1         1 DYO       0.065700
     45 H8          27.6380    -1.6700   -11.9810 h1         1 DYO       0.049700
     46 H9          29.2100    -2.4200   -11.7500 h1         1 DYO       0.049700
     47 H10         27.5640     0.4270   -13.4740 ha         1 DYO       0.130000
     48 H11         38.0360    -0.0950    -9.7870 h1         1 DYO       0.065367
     49 H12         38.5500     1.2820    -8.7980 h1         1 DYO       0.065367
     50 H13         38.6090    -0.3590    -8.1300 h1         1 DYO       0.065367
     51 H14         35.6480     3.9460    -7.1040 ha         1 DYO       0.121000
     52 H15         38.5790     0.9850    -6.0880 ha         1 DYO       0.121000
     53 H16         40.1810     5.5730    -5.1550 h1         1 DYO       0.035200
     54 H17         38.7040     6.2470    -4.5040 h1         1 DYO       0.035200
     55 H18         31.8370     1.2460   -10.1720 hc         1 DYO       0.059450
     56 H19         30.3050     1.9430   -10.6550 hc         1 DYO       0.059450
     57 H20         31.0020    -1.0320   -10.6950 h1         1 DYO       0.043950
     58 H21         30.8310     0.0570   -12.0610 h1         1 DYO       0.043950
     59 H22         28.1610     1.3850    -9.2740 hc         1 DYO       0.059450
     60 H23         27.4190    -0.8420    -9.8810 h1         1 DYO       0.043950
     61 H24         31.4930     0.2450   -20.1480 h5         1 DYO       0.089100
     62 H25         40.3790     5.5200    -2.8540 hn         1 DYO       0.397500
     63 H26         38.9690     4.7590    -2.6380 hn         1 DYO       0.397500
     64 H28         29.7870     2.2540    -7.3870 ho         1 DYO       0.437000
     65 H29         28.3140     0.3120    -7.8890 hc         1 DYO       0.059450
     66 H30         28.9280    -1.5750    -9.3580 h1         1 DYO       0.043950
     67 O11         30.3080     2.2310    -8.1980 oh         1 DYO      -0.654000
     68 O06         33.0250    -1.3830    -9.2190 o          1 DYO      -0.517000
     69 C23         38.0560     0.3150    -8.7820 c3         1 DYO       0.062900
@<TRIPOS>BOND
     1     1    14 1   
     2     1    15 ar  
     3     1    17 ar  
     4     2    15 ar  
     5     2    16 ar  
     6     2    38 1   
     7     3    16 ar  
     8     3    17 ar  
     9     3    39 1   
    10     4     5 1   
    11     4     8 2   
    12     4    32 1   
    13     5    18 ar  
    14     5    20 ar  
    15     6    18 ar  
    16     6    19 ar  
    17     6    40 1   
    18     7    19 ar  
    19     7    20 ar  
    20     7    41 1   
    21     8     9 1   
    22     8    28 1   
    23     9    10 1   
    24     9    31 2   
    25    10    29 1   
    26    10    68 2   
    27    11    28 2   
    28    11    29 1   
    29    11    42 1   
    30    12    13 1   
    31    12    29 1   
    32    12    43 1   
    33    12    44 1   
    34    13    22 1   
    35    13    24 1   
    36    13    67 1   
    37    14    30 1   
    38    14    45 1   
    39    14    46 1   
    40    15    37 1   
    41    16    26 1   
    42    17    47 1   
    43    18    51 1   
    44    19    21 1   
    45    20    52 1   
    46    21    33 1   
    47    21    53 1   
    48    21    54 1   
    49    22    23 1   
    50    22    55 1   
    51    22    56 1   
    52    23    30 1   
    53    23    57 1   
    54    23    58 1   
    55    24    25 1   
    56    24    59 1   
    57    24    65 1   
    58    25    30 1   
    59    25    60 1   
    60    25    66 1   
    61    26    34 1   
    62    26    35 2   
    63    27    34 2   
    64    27    36 1   
    65    27    61 1   
    66    31    32 1   
    67    32    69 1   
    68    33    62 1   
    69    33    63 1   
    70    35    36 1   
    71    48    69 1   
    72    49    69 1   
    73    50    69 1   
    74    64    67 1   
@<TRIPOS>SUBSTRUCTURE
     1 DYO         1 TEMP              0 ****  ****    0 ROOT
