@<TRIPOS>MOLECULE
DYP
   59    62     1     0     0
SMALL
No Charge or Current Charge


@<TRIPOS>ATOM
      1 CAY         -5.9180   -16.7720    38.1590 c3         1 DYP      -0.078100
      2 CAX         -7.3960   -16.4270    38.4480 c3         1 DYP      -0.178400
      3 CAW         -7.5280   -15.2150    39.3910 c          1 DYP       0.572100
      4 OBF         -7.3060   -15.3330    40.5900 o          1 DYP      -0.527100
      5 CAV         -7.9430   -13.8420    38.8070 c6         1 DYP      -0.170700
      6 CAU         -9.3810   -13.8710    38.2050 c6         1 DYP      -0.064900
      7 CAT         -9.7770   -12.4890    37.6270 c6         1 DYP       0.165300
      8 CAI         -6.9900   -13.3710    37.6690 c6         1 DYP      -0.064900
      9 CAH         -7.4270   -11.9990    37.0970 c6         1 DYP       0.165300
     10 NAG         -8.8220   -12.0470    36.5760 n3         1 DYP      -0.721600
     11 CAF         -9.2440   -10.7790    35.9350 c3         1 DYP       0.222100
     12 CAE         -8.3910   -10.4040    34.7270 ca         1 DYP      -0.130300
     13 CAS         -7.5880    -9.2480    34.7500 ca         1 DYP      -0.056000
     14 CAR         -6.7950    -8.9160    33.6370 ca         1 DYP      -0.177500
     15 CAD         -8.3950   -11.2200    33.5800 ca         1 DYP      -0.056000
     16 CAC         -7.6000   -10.8840    32.4700 ca         1 DYP      -0.177500
     17 CAQ         -6.7930    -9.7330    32.4970 ca         1 DYP       0.301000
     18 N10         -5.9830    -9.3850    31.4140 nu         1 DYP      -0.955200
     19 C9          -5.4770   -10.2990    30.3530 c3         1 DYP       0.173500
     20 C6          -4.7140   -11.5160    30.9010 ca         1 DYP       0.213300
     21 C7          -3.6910   -11.3650    31.8570 ca         1 DYP       0.094900
     22 N8          -3.0170   -12.4200    32.3560 nb         1 DYP      -0.106000
     23 C8A         -3.3410   -13.6570    31.9140 ca         1 DYP       0.113000
     24 N1          -2.7010   -14.7520    32.3860 nb         1 DYP      -0.270000
     25 C2          -3.0690   -15.9470    31.9100 ca         1 DYP       0.440900
     26 N2          -2.4120   -17.0160    32.4060 nv         1 DYP      -1.062900
     27 N3          -4.0090   -16.2170    31.0080 nb         1 DYP      -0.346000
     28 C4          -4.6520   -15.1520    30.5230 ca         1 DYP       0.459900
     29 N4          -5.6090   -15.4560    29.5980 nv         1 DYP      -1.059900
     30 C4A         -4.3750   -13.8160    30.9350 ca         1 DYP       0.035000
     31 N5          -5.0560   -12.7430    30.4340 nb         1 DYP      -0.609000
     32 HAY1        -5.3850   -17.0120    39.0880 hc         1 DYP       0.040033
     33 HAY2        -5.4050   -15.9320    37.6750 hc         1 DYP       0.040033
     34 HAY3        -5.8510   -17.6410    37.4930 hc         1 DYP       0.040033
     35 HAX1        -7.8630   -17.2970    38.9250 hc         1 DYP       0.060700
     36 HAX2        -7.8840   -16.2270    37.4890 hc         1 DYP       0.060700
     37 HAV         -7.9150   -13.1160    39.6310 hc         1 DYP       0.070700
     38 HAU1       -10.1040   -14.1590    38.9810 hc         1 DYP       0.052200
     39 HAU2        -9.4650   -14.6220    37.4090 hc         1 DYP       0.052200
     40 HAT1        -9.8130   -11.7540    38.4440 h1         1 DYP       0.035200
     41 HAT2       -10.7930   -12.5610    37.2110 h1         1 DYP       0.035200
     42 HAI1        -6.9660   -14.1020    36.8490 hc         1 DYP       0.052200
     43 HAI2        -5.9620   -13.2940    38.0500 hc         1 DYP       0.052200
     44 HAH1        -6.7240   -11.7200    36.2990 h1         1 DYP       0.035200
     45 HAH2        -7.3400   -11.2360    37.8850 h1         1 DYP       0.035200
     46 HAF1        -9.2170    -9.9610    36.6680 h1         1 DYP       0.035700
     47 HAF2       -10.2850   -10.8660    35.5950 h1         1 DYP       0.035700
     48 HAS         -7.5730    -8.6080    35.6310 ha         1 DYP       0.113500
     49 HAR         -6.1760    -8.0240    33.6690 ha         1 DYP       0.114000
     50 HAD         -9.0090   -12.1170    33.5540 ha         1 DYP       0.113500
     51 HAC         -7.6160   -11.5250    31.5940 ha         1 DYP       0.114000
     52 H10         -5.5040    -8.4860    31.5060 hn         1 DYP       0.468000
     53 H91         -4.8070    -9.7510    29.6760 h1         1 DYP       0.069200
     54 H92         -6.3190   -10.6550    29.7430 h1         1 DYP       0.069200
     55 H7          -3.4060   -10.3840    32.2330 h4         1 DYP       0.028100
     56 HN21        -1.8660   -16.8910    33.2550 hn         1 DYP       0.505500
     57 HN22        -2.8110   -17.9390    32.2550 hn         1 DYP       0.505500
     58 HN41        -6.2580   -14.7080    29.3660 hn         1 DYP       0.512500
     59 HN42        -5.9790   -16.4020    29.5840 hn         1 DYP       0.512500
@<TRIPOS>BOND
     1     1     2 1   
     2     1    32 1   
     3     1    33 1   
     4     1    34 1   
     5     2     3 1   
     6     2    35 1   
     7     2    36 1   
     8     3     4 2   
     9     3     5 1   
    10     5     6 1   
    11     5     8 1   
    12     5    37 1   
    13     6     7 1   
    14     6    38 1   
    15     6    39 1   
    16     7    10 1   
    17     7    40 1   
    18     7    41 1   
    19     8     9 1   
    20     8    42 1   
    21     8    43 1   
    22     9    10 1   
    23     9    44 1   
    24     9    45 1   
    25    10    11 1   
    26    11    12 1   
    27    11    46 1   
    28    11    47 1   
    29    12    13 ar  
    30    12    15 ar  
    31    13    14 ar  
    32    13    48 1   
    33    14    17 ar  
    34    14    49 1   
    35    15    16 ar  
    36    15    50 1   
    37    16    17 ar  
    38    16    51 1   
    39    17    18 1   
    40    18    19 1   
    41    18    52 1   
    42    19    20 1   
    43    19    53 1   
    44    19    54 1   
    45    20    21 ar  
    46    20    31 ar  
    47    21    22 ar  
    48    21    55 1   
    49    22    23 ar  
    50    23    24 ar  
    51    23    30 ar  
    52    24    25 ar  
    53    25    26 1   
    54    25    27 ar  
    55    26    56 1   
    56    26    57 1   
    57    27    28 ar  
    58    28    29 1   
    59    28    30 ar  
    60    29    58 1   
    61    29    59 1   
    62    30    31 ar  
@<TRIPOS>SUBSTRUCTURE
     1 DYP         1 TEMP              0 ****  ****    0 ROOT
