@<TRIPOS>MOLECULE
DYP
   59    62     1     0     0
SMALL
abcg2


@<TRIPOS>ATOM
      1 CAY         -6.6880   -17.4120    39.3470 c3         1 DYP      -0.078100
      2 CAX         -7.5060   -16.2480    38.8100 c3         1 DYP      -0.178400
      3 CAW         -7.2580   -14.9320    39.5080 c          1 DYP       0.572100
      4 OBF         -6.5870   -14.8660    40.5250 o          1 DYP      -0.527100
      5 CAV         -7.8340   -13.6710    38.8940 c6         1 DYP      -0.170700
      6 CAU         -9.2200   -13.8240    38.2600 c6         1 DYP      -0.064900
      7 CAT         -9.6690   -12.5060    37.6400 c6         1 DYP       0.165300
      8 CAI         -6.8520   -13.1170    37.8430 c6         1 DYP      -0.064900
      9 CAH         -7.3960   -11.8340    37.2280 c6         1 DYP       0.165300
     10 NAG         -8.7140   -12.0430    36.6360 n3         1 DYP      -0.721600
     11 CAF         -9.2030   -10.8380    35.9600 c3         1 DYP       0.222100
     12 CAE         -8.3860   -10.4700    34.7490 ca         1 DYP      -0.130300
     13 CAS         -7.6370    -9.2950    34.7020 ca         1 DYP      -0.056000
     14 CAR         -6.8740    -8.9640    33.5920 ca         1 DYP      -0.177500
     15 CAD         -8.3430   -11.3070    33.6350 ca         1 DYP      -0.056000
     16 CAC         -7.5830   -10.9950    32.5150 ca         1 DYP      -0.177500
     17 CAQ         -6.8350    -9.8080    32.4730 ca         1 DYP       0.301000
     18 N10         -6.0930    -9.4420    31.3610 nu         1 DYP      -0.955200
     19 C9          -5.7210   -10.3980    30.3410 c3         1 DYP       0.173500
     20 C6          -4.9150   -11.5860    30.8280 ca         1 DYP       0.213300
     21 C7          -4.0550   -11.5030    31.9450 ca         1 DYP       0.094900
     22 N8          -3.3300   -12.5130    32.3800 nb         1 DYP      -0.106000
     23 C8A         -3.4290   -13.6850    31.7020 ca         1 DYP       0.113000
     24 N1          -2.7010   -14.7390    32.1250 nb         1 DYP      -0.270000
     25 C2          -2.8420   -15.8610    31.4220 ca         1 DYP       0.440900
     26 N2          -2.1110   -16.9310    31.8000 nv         1 DYP      -1.062900
     27 N3          -3.6360   -16.0580    30.3350 nb         1 DYP      -0.346000
     28 C4          -4.3560   -15.0370    29.9080 ca         1 DYP       0.459900
     29 N4          -5.1460   -15.1720    28.8400 nv         1 DYP      -1.059900
     30 C4A         -4.2890   -13.7600    30.5850 ca         1 DYP       0.035000
     31 N5          -5.0220   -12.7220    30.1630 nb         1 DYP      -0.609000
     32 HAY1        -6.8870   -17.5770    40.4070 hc         1 DYP       0.040033
     33 HAY2        -5.6190   -17.2260    39.2340 hc         1 DYP       0.040033
     34 HAY3        -6.9340   -18.3280    38.8080 hc         1 DYP       0.040033
     35 HAX1        -8.5790   -16.4530    38.9000 hc         1 DYP       0.060700
     36 HAX2        -7.3370   -16.1020    37.7390 hc         1 DYP       0.060700
     37 HAV         -7.8960   -12.9410    39.7070 hc         1 DYP       0.070700
     38 HAU1        -9.9500   -14.1400    39.0090 hc         1 DYP       0.052200
     39 HAU2        -9.1960   -14.5870    37.4800 hc         1 DYP       0.052200
     40 HAT1        -9.8020   -11.7510    38.4370 h1         1 DYP       0.035200
     41 HAT2       -10.6390   -12.6360    37.1560 h1         1 DYP       0.035200
     42 HAI1        -6.6970   -13.8590    37.0550 hc         1 DYP       0.052200
     43 HAI2        -5.8830   -12.9160    38.3050 hc         1 DYP       0.052200
     44 HAH1        -6.7170   -11.4840    36.4500 h1         1 DYP       0.035200
     45 HAH2        -7.4390   -11.0460    38.0020 h1         1 DYP       0.035200
     46 HAF1        -9.2280    -9.9800    36.6530 h1         1 DYP       0.035700
     47 HAF2       -10.2360   -11.0370    35.6630 h1         1 DYP       0.035700
     48 HAS         -7.6420    -8.6270    35.5560 ha         1 DYP       0.113500
     49 HAR         -6.2960    -8.0470    33.5840 ha         1 DYP       0.114000
     50 HAD         -8.9080   -12.2320    33.6430 ha         1 DYP       0.113500
     51 HAC         -7.5770   -11.6750    31.6740 ha         1 DYP       0.114000
     52 H10         -5.4280    -8.7020    31.5210 hn         1 DYP       0.468000
     53 H91         -5.1410    -9.8590    29.5890 h1         1 DYP       0.069200
     54 H92         -6.6080   -10.7840    29.8320 h1         1 DYP       0.069200
     55 H7          -3.9760   -10.5700    32.4910 h4         1 DYP       0.028100
     56 HN21        -1.6000   -16.8950    32.6660 hn         1 DYP       0.505500
     57 HN22        -2.2890   -17.8250    31.3740 hn         1 DYP       0.505500
     58 HN41        -5.7240   -14.4010    28.5480 hn         1 DYP       0.512500
     59 HN42        -5.2360   -16.0660    28.3860 hn         1 DYP       0.512500
@<TRIPOS>BOND
     1     1     2 1   
     2     1    32 1   
     3     1    33 1   
     4     1    34 1   
     5     2     3 1   
     6     2    35 1   
     7     2    36 1   
     8     3     4 2   
     9     3     5 1   
    10     5     6 1   
    11     5     8 1   
    12     5    37 1   
    13     6     7 1   
    14     6    38 1   
    15     6    39 1   
    16     7    10 1   
    17     7    40 1   
    18     7    41 1   
    19     8     9 1   
    20     8    42 1   
    21     8    43 1   
    22     9    10 1   
    23     9    44 1   
    24     9    45 1   
    25    10    11 1   
    26    11    12 1   
    27    11    46 1   
    28    11    47 1   
    29    12    13 ar  
    30    12    15 ar  
    31    13    14 ar  
    32    13    48 1   
    33    14    17 ar  
    34    14    49 1   
    35    15    16 ar  
    36    15    50 1   
    37    16    17 ar  
    38    16    51 1   
    39    17    18 1   
    40    18    19 1   
    41    18    52 1   
    42    19    20 1   
    43    19    53 1   
    44    19    54 1   
    45    20    21 ar  
    46    20    31 ar  
    47    21    22 ar  
    48    21    55 1   
    49    22    23 ar  
    50    23    24 ar  
    51    23    30 ar  
    52    24    25 ar  
    53    25    26 1   
    54    25    27 ar  
    55    26    56 1   
    56    26    57 1   
    57    27    28 ar  
    58    28    29 1   
    59    28    30 ar  
    60    29    58 1   
    61    29    59 1   
    62    30    31 ar  
@<TRIPOS>SUBSTRUCTURE
     1 DYP         1 TEMP              0 ****  ****    0 ROOT
