@<TRIPOS>MOLECULE
DYQ
   46    50     1     0     0
SMALL
abcg2


@<TRIPOS>ATOM
      1 C4          27.6660    84.7650    -4.0130 cx         1 DYQ      -0.172700
      2 C14         30.9470    90.7210    -5.4210 ca         1 DYQ      -0.101000
      3 C6          26.8880    86.0680    -4.1400 c5         1 DYQ       0.216100
      4 C11         29.2420    89.2710    -7.0740 ca         1 DYQ      -0.081000
      5 C8          27.7360    87.1260    -4.6890 c1         1 DYQ      -0.148100
      6 C9          28.4390    87.9870    -5.1550 cg         1 DYQ      -0.075000
      7 C10         29.2760    89.0020    -5.7020 ca         1 DYQ       0.032000
      8 C12         30.0700    90.2530    -7.6060 ca         1 DYQ       0.025800
      9 C13         30.9300    90.9810    -6.7860 ca         1 DYQ      -0.092000
     10 C3          26.9170    83.5190    -3.6000 cx         1 DYQ      -0.123400
     11 C15         30.1340    89.7400    -4.8740 ca         1 DYQ      -0.090000
     12 C18         29.7540    89.9780   -11.0810 cc         1 DYQ       0.317900
     13 C19         29.4770    89.1250   -12.2630 c          1 DYQ       0.553800
     14 C2          27.1240    83.8330    -5.0530 cx         1 DYQ       0.052700
     15 C22         30.0650    91.3690   -11.0610 ca         1 DYQ      -0.225900
     16 C23         30.2410    91.6710    -9.6920 ca         1 DYQ       0.380500
     17 C25         30.6490    93.8390   -10.0820 ca         1 DYQ       0.377900
     18 C26         30.5130    93.6590   -11.4690 ca         1 DYQ      -0.201000
     19 C27         30.2130    92.4100   -11.9810 ca         1 DYQ       0.018000
     20 C28         25.7670    85.7260    -5.1760 c          1 DYQ       0.575000
     21 N16         30.0390    90.4930    -9.0020 na         1 DYQ       0.067100
     22 N17         29.7420    89.4870    -9.8550 nd         1 DYQ      -0.497100
     23 N20         29.2170    87.8330   -12.0030 nt         1 DYQ      -0.592000
     24 N24         30.5180    92.8680    -9.1810 nb         1 DYQ      -0.676000
     25 N30         26.0300    84.5130    -5.6970 n          1 DYQ      -0.390800
     26 O21         29.4930    89.6050   -13.3970 o          1 DYQ      -0.606100
     27 O29         24.8170    86.4500    -5.4300 o          1 DYQ      -0.507000
     28 O7          26.2180    86.4920    -2.9560 oh         1 DYQ      -0.615000
     29 H5          28.7280    84.8240    -3.8270 hc         1 DYQ       0.104700
     30 H37         31.6130    91.2850    -4.7820 ha         1 DYQ       0.123000
     31 H35         28.5780    88.7180    -7.7210 ha         1 DYQ       0.142000
     32 H36         31.5750    91.7340    -7.2110 ha         1 DYQ       0.144000
     33 H32         25.9140    83.6210    -3.2070 hc         1 DYQ       0.089200
     34 H33         27.5140    82.7310    -3.1600 hc         1 DYQ       0.089200
     35 H38         30.1570    89.5360    -3.8120 ha         1 DYQ       0.123000
     36 H1          27.7530    83.2330    -5.6950 h1         1 DYQ       0.109700
     37 H41         30.8740    94.8240    -9.6900 h4         1 DYQ       0.025100
     38 H42         30.6420    94.5090   -12.1240 ha         1 DYQ       0.130000
     39 H43         30.0940    92.2420   -13.0420 ha         1 DYQ       0.150000
     40 H45         25.7060    83.3700    -7.4120 h1         1 DYQ       0.047033
     41 H46         24.5910    83.0310    -6.0700 h1         1 DYQ       0.047033
     42 H44         24.4240    84.5330    -7.0050 h1         1 DYQ       0.047033
     43 H40         29.0240    87.2010   -12.7640 hn         1 DYQ       0.327500
     44 H39         29.2210    87.4820   -11.0590 hn         1 DYQ       0.327500
     45 H34         26.8900    86.7190    -2.2990 ho         1 DYQ       0.452000
     46 C31         25.1340    83.8180    -6.5990 c3         1 DYQ       0.099300
@<TRIPOS>BOND
     1     1     3 1   
     2     1    10 1   
     3     1    14 1   
     4     1    29 1   
     5     2     9 ar  
     6     2    11 ar  
     7     2    30 1   
     8     3     5 1   
     9     3    20 1   
    10     3    28 1   
    11     4     7 ar  
    12     4     8 ar  
    13     4    31 1   
    14     5     6 3   
    15     6     7 1   
    16     7    11 ar  
    17     8     9 ar  
    18     8    21 1   
    19     9    32 1   
    20    10    14 1   
    21    10    33 1   
    22    10    34 1   
    23    11    35 1   
    24    12    13 1   
    25    12    15 1   
    26    12    22 2   
    27    13    23 1   
    28    13    26 2   
    29    14    25 1   
    30    14    36 1   
    31    15    16 ar  
    32    15    19 ar  
    33    16    21 1   
    34    16    24 ar  
    35    17    18 ar  
    36    17    24 ar  
    37    17    37 1   
    38    18    19 ar  
    39    18    38 1   
    40    19    39 1   
    41    20    25 1   
    42    20    27 2   
    43    21    22 1   
    44    23    43 1   
    45    23    44 1   
    46    25    46 1   
    47    28    45 1   
    48    40    46 1   
    49    41    46 1   
    50    42    46 1   
@<TRIPOS>SUBSTRUCTURE
     1 DYQ         1 TEMP              0 ****  ****    0 ROOT
