@<TRIPOS>MOLECULE
DYQ
   46    50     1     0     0
SMALL
No Charge or Current Charge


@<TRIPOS>ATOM
      1 C4          27.5330    84.8280    -3.9130 cx         1 DYQ      -0.172700
      2 C14         31.4000    90.2970    -5.6000 ca         1 DYQ      -0.101000
      3 C6          26.7740    86.1670    -4.1600 c5         1 DYQ       0.216100
      4 C11         29.3790    89.1350    -7.1700 ca         1 DYQ      -0.081000
      5 C8          27.7400    87.1380    -4.7150 c1         1 DYQ      -0.148100
      6 C9          28.5340    87.9150    -5.2070 cg         1 DYQ      -0.075000
      7 C10         29.4700    88.8240    -5.8010 ca         1 DYQ       0.032000
      8 C12         30.2950    90.0280    -7.7600 ca         1 DYQ       0.025800
      9 C13         31.3080    90.6060    -6.9680 ca         1 DYQ      -0.092000
     10 C3          26.7610    83.7100    -3.2380 cx         1 DYQ      -0.123400
     11 C15         30.4820    89.4070    -5.0160 ca         1 DYQ      -0.090000
     12 C18         30.1290    90.0390   -11.2350 cc         1 DYQ       0.317900
     13 C19         30.1320    89.4230   -12.6140 c          1 DYQ       0.553800
     14 C2          26.7550    83.8390    -4.7390 cx         1 DYQ       0.052700
     15 C22         29.9780    91.4610   -10.9690 ca         1 DYQ      -0.225900
     16 C23         30.0270    91.6160    -9.6090 ca         1 DYQ       0.380500
     17 C25         29.7450    93.9000    -9.8000 ca         1 DYQ       0.377900
     18 C26         29.6870    93.8140   -11.2070 ca         1 DYQ      -0.201000
     19 C27         29.8060    92.5570   -11.8270 ca         1 DYQ       0.018000
     20 C28         25.5850    85.8750    -5.1710 c          1 DYQ       0.575000
     21 N16         30.2020    90.3280    -9.1190 na         1 DYQ       0.067100
     22 N17         30.2640    89.3360   -10.0930 nd         1 DYQ      -0.497100
     23 N20         30.2840    88.0730   -12.6620 nt         1 DYQ      -0.592000
     24 N24         29.9120    92.8180    -8.9990 nb         1 DYQ      -0.676000
     25 N30         25.7050    84.5120    -5.4510 n          1 DYQ      -0.390800
     26 O21         30.0110    90.0340   -13.6680 o          1 DYQ      -0.606100
     27 O29         24.7320    86.6230    -5.6390 o          1 DYQ      -0.507000
     28 O7          26.2990    86.7000    -2.9180 oh         1 DYQ      -0.615000
     29 H5          28.6200    84.7770    -3.9250 hc         1 DYQ       0.104700
     30 H37         32.1830    90.7460    -4.9930 ha         1 DYQ       0.123000
     31 H35         28.5980    88.6830    -7.7780 ha         1 DYQ       0.142000
     32 H36         32.0230    91.2950    -7.4140 ha         1 DYQ       0.144000
     33 H32         25.8460    83.9540    -2.7040 hc         1 DYQ       0.089200
     34 H33         27.3300    82.8910    -2.8060 hc         1 DYQ       0.089200
     35 H38         30.5580    89.1720    -3.9570 ha         1 DYQ       0.123000
     36 H1          27.2910    83.1260    -5.3700 h1         1 DYQ       0.109700
     37 H41         29.6540    94.8640    -9.3010 h4         1 DYQ       0.025100
     38 H42         29.5500    94.7130   -11.8000 ha         1 DYQ       0.130000
     39 H43         29.7630    92.4570   -12.9100 ha         1 DYQ       0.150000
     40 H45         25.0420    82.6970    -6.3270 h1         1 DYQ       0.047033
     41 H46         23.7540    83.8810    -5.9630 h1         1 DYQ       0.047033
     42 H44         24.8510    84.1510    -7.3500 h1         1 DYQ       0.047033
     43 H40         30.2950    87.6030   -13.5550 hn         1 DYQ       0.327500
     44 H39         30.3860    87.5540   -11.8010 hn         1 DYQ       0.327500
     45 H34         27.0980    86.8660    -2.3740 ho         1 DYQ       0.452000
     46 C31         24.7840    83.7640    -6.3250 c3         1 DYQ       0.099300
@<TRIPOS>BOND
     1     1     3 1   
     2     1    10 1   
     3     1    14 1   
     4     1    29 1   
     5     2     9 ar  
     6     2    11 ar  
     7     2    30 1   
     8     3     5 1   
     9     3    20 1   
    10     3    28 1   
    11     4     7 ar  
    12     4     8 ar  
    13     4    31 1   
    14     5     6 3   
    15     6     7 1   
    16     7    11 ar  
    17     8     9 ar  
    18     8    21 1   
    19     9    32 1   
    20    10    14 1   
    21    10    33 1   
    22    10    34 1   
    23    11    35 1   
    24    12    13 1   
    25    12    15 1   
    26    12    22 2   
    27    13    23 1   
    28    13    26 2   
    29    14    25 1   
    30    14    36 1   
    31    15    16 ar  
    32    15    19 ar  
    33    16    21 1   
    34    16    24 ar  
    35    17    18 ar  
    36    17    24 ar  
    37    17    37 1   
    38    18    19 ar  
    39    18    38 1   
    40    19    39 1   
    41    20    25 1   
    42    20    27 2   
    43    21    22 1   
    44    23    43 1   
    45    23    44 1   
    46    25    46 1   
    47    28    45 1   
    48    40    46 1   
    49    41    46 1   
    50    42    46 1   
@<TRIPOS>SUBSTRUCTURE
     1 DYQ         1 TEMP              0 ****  ****    0 ROOT
