@<TRIPOS>MOLECULE
DYR
   40    43     1     0     0
SMALL
bcc


@<TRIPOS>ATOM
      1 C10          4.6110    -1.5590    -0.8710 ca         1 DYR      -0.070500
      2 C13          2.3100    -2.5670     0.4290 ca         1 DYR      -0.155500
      3 C15         -0.6290    -0.0890     0.4240 c          1 DYR       0.645100
      4 C20         -4.4110     1.3590    -1.3180 ca         1 DYR      -0.077000
      5 C21         -5.3840     0.3780    -1.2370 ca         1 DYR      -0.128000
      6 C22         -5.2010    -0.7190    -0.4100 ca         1 DYR      -0.090000
      7 C01          3.9610     3.0980    -0.4970 ca         1 DYR      -0.162500
      8 C02          4.3710     1.7940    -0.7190 ca         1 DYR      -0.070500
      9 C03          3.5750     0.7500    -0.2570 cp         1 DYR      -0.077500
     10 C04          2.3790     1.0350     0.4290 ca         1 DYR       0.007800
     11 C05          1.9530     2.3410     0.6460 ca         1 DYR      -0.155500
     12 C06          2.7620     3.3620     0.1750 ca         1 DYR      -0.096500
     13 C08          2.5360    -1.1980     0.3270 ca         1 DYR       0.007800
     14 C09          3.6750    -0.6860    -0.3230 cp         1 DYR      -0.077500
     15 C11          4.3940    -2.9230    -0.7680 ca         1 DYR      -0.162500
     16 C12          3.2530    -3.4160    -0.1250 ca         1 DYR      -0.096500
     17 C18         -3.0340     0.1240     0.2600 ca         1 DYR       0.094600
     18 C19         -3.2500     1.2360    -0.5610 ca         1 DYR       0.002000
     19 C23         -4.0290    -0.8460     0.3210 ca         1 DYR      -0.002600
     20 C25         -2.2880     2.2880    -0.5850 cg         1 DYR       0.238800
     21 N07          1.7820    -0.1480     0.8020 na         1 DYR      -0.060300
     22 N17         -1.8560     0.0060     1.0040 ns         1 DYR      -0.503100
     23 N26         -1.5400     3.1630    -0.5980 n1         1 DYR      -0.348800
     24 O16         -0.4490    -0.0410    -0.7700 o          1 DYR      -0.530100
     25 CL1         -3.7920    -2.2300     1.3200 cl         1 DYR      -0.094400
     26 H1           5.4930    -1.1800    -1.3710 ha         1 DYR       0.133500
     27 H2           1.4300    -2.9690     0.9150 ha         1 DYR       0.133000
     28 H3          -4.5520     2.2250    -1.9500 ha         1 DYR       0.153000
     29 H4          -6.2930     0.4680    -1.8130 ha         1 DYR       0.146000
     30 H5          -5.9610    -1.4840    -0.3400 ha         1 DYR       0.153000
     31 H6           4.5670     3.9220    -0.8490 ha         1 DYR       0.131000
     32 H7           5.2940     1.5910    -1.2480 ha         1 DYR       0.133500
     33 H8           1.0220     2.5670     1.1490 ha         1 DYR       0.133000
     34 H9           2.4530     4.3890     0.3270 ha         1 DYR       0.129500
     35 H10          5.1110    -3.6160    -1.1900 ha         1 DYR       0.131000
     36 H11          3.1000    -4.4850    -0.0600 ha         1 DYR       0.129500
     37 H12          0.4120     0.5040     2.2140 h1         1 DYR       0.076200
     38 H13          0.4140    -1.2140     1.9290 h1         1 DYR       0.076200
     39 H14         -1.9410    -0.1470     1.9990 hn         1 DYR       0.331500
     40 C14          0.5050    -0.2480     1.4270 c3         1 DYR      -0.024700
@<TRIPOS>BOND
     1     1    14 ar  
     2     1    15 ar  
     3     1    26 1   
     4     2    13 ar  
     5     2    16 ar  
     6     2    27 1   
     7     3    22 1   
     8     3    24 2   
     9     3    40 1   
    10     4     5 ar  
    11     4    18 ar  
    12     4    28 1   
    13     5     6 ar  
    14     5    29 1   
    15     6    19 ar  
    16     6    30 1   
    17     7     8 ar  
    18     7    12 ar  
    19     7    31 1   
    20     8     9 ar  
    21     8    32 1   
    22     9    10 ar  
    23     9    14 1   
    24    10    11 ar  
    25    10    21 1   
    26    11    12 ar  
    27    11    33 1   
    28    12    34 1   
    29    13    14 ar  
    30    13    21 1   
    31    15    16 ar  
    32    15    35 1   
    33    16    36 1   
    34    17    18 ar  
    35    17    19 ar  
    36    17    22 1   
    37    18    20 1   
    38    19    25 1   
    39    20    23 3   
    40    21    40 1   
    41    22    39 1   
    42    37    40 1   
    43    38    40 1   
@<TRIPOS>SUBSTRUCTURE
     1 DYR         1 TEMP              0 ****  ****    0 ROOT
