@<TRIPOS>MOLECULE
DYR
   40    43     1     0     0
SMALL
No Charge or Current Charge


@<TRIPOS>ATOM
      1 C10          3.7970    -0.4030    -1.5710 ca         1 DYR      -0.052500
      2 C13          2.4890    -2.5290    -0.1740 ca         1 DYR      -0.137500
      3 C15         -0.6530    -1.3450     1.1010 c          1 DYR       0.578100
      4 C20         -3.3910     0.0490    -2.3140 ca         1 DYR      -0.059000
      5 C21         -4.3870     0.9200    -1.8400 ca         1 DYR      -0.110000
      6 C22         -4.2920     1.4500    -0.5440 ca         1 DYR      -0.072000
      7 C01          2.6020     3.4350     0.8890 ca         1 DYR      -0.144500
      8 C02          3.0820     2.4280     0.0210 ca         1 DYR      -0.052500
      9 C03          2.7180     1.0940     0.2820 cp         1 DYR      -0.077500
     10 C04          1.9040     0.7910     1.3720 ca         1 DYR       0.007800
     11 C05          1.4110     1.7680     2.2470 ca         1 DYR      -0.137500
     12 C06          1.7740     3.1080     1.9920 ca         1 DYR      -0.078500
     13 C08          2.4030    -1.1970     0.2500 ca         1 DYR       0.007800
     14 C09          3.0300    -0.1480    -0.4180 cp         1 DYR      -0.077500
     15 C11          3.9060    -1.7380    -2.0200 ca         1 DYR      -0.144500
     16 C12          3.2570    -2.7920    -1.3290 ca         1 DYR      -0.078500
     17 C18         -2.2200     0.2040    -0.1710 ca         1 DYR       0.002000
     18 C19         -2.3020    -0.3100    -1.4940 ca         1 DYR       0.002000
     19 C23         -3.2120     1.1010     0.2820 ca         1 DYR       0.089000
     20 C25         -1.2730    -1.1460    -2.0600 cg         1 DYR       0.328000
     21 N07          1.7210    -0.6030     1.3250 na         1 DYR      -0.089600
     22 N17         -1.1500    -0.1130     0.7080 ns         1 DYR      -0.177000
     23 N26         -0.4420    -1.8140    -2.5340 n1         1 DYR      -0.438000
     24 O16         -1.1650    -2.4080     0.7720 o          1 DYR      -0.530100
     25 Cl1         -3.1250     1.7900     1.9040 cl         1 DYR      -0.186000
     26 H1           4.2900     0.4070    -2.1020 ha         1 DYR       0.115500
     27 H2           1.9850    -3.3310     0.3600 ha         1 DYR       0.115000
     28 H3          -3.4630    -0.3370    -3.3300 ha         1 DYR       0.135000
     29 H4          -5.2230     1.1920    -2.4800 ha         1 DYR       0.128000
     30 H5          -5.0550     2.1340    -0.1790 ha         1 DYR       0.135000
     31 H6           2.8700     4.4730     0.7070 ha         1 DYR       0.113000
     32 H7           3.7140     2.6780    -0.8270 ha         1 DYR       0.115500
     33 H8           0.7770     1.5130     3.0920 ha         1 DYR       0.115000
     34 H9           1.4130     3.8980     2.6480 ha         1 DYR       0.111500
     35 H10          4.4920    -1.9590    -2.9090 ha         1 DYR       0.113000
     36 H11          3.3500    -3.8140    -1.6920 ha         1 DYR       0.111500
     37 H12          0.3250    -0.7340     2.9100 h1         1 DYR       0.076200
     38 H13          0.8810    -2.2940     2.2680 h1         1 DYR       0.076200
     39 H14         -0.6760     0.6900     1.1050 hn         1 DYR       0.165000
     40 C14          0.5890    -1.2730     1.9940 c3         1 DYR       0.004600
@<TRIPOS>BOND
     1     1    14 ar  
     2     1    15 ar  
     3     1    26 1   
     4     2    13 ar  
     5     2    16 ar  
     6     2    27 1   
     7     3    22 1   
     8     3    24 2   
     9     3    40 1   
    10     4     5 ar  
    11     4    18 ar  
    12     4    28 1   
    13     5     6 ar  
    14     5    29 1   
    15     6    19 ar  
    16     6    30 1   
    17     7     8 ar  
    18     7    12 ar  
    19     7    31 1   
    20     8     9 ar  
    21     8    32 1   
    22     9    10 ar  
    23     9    14 1   
    24    10    11 ar  
    25    10    21 1   
    26    11    12 ar  
    27    11    33 1   
    28    12    34 1   
    29    13    14 ar  
    30    13    21 1   
    31    15    16 ar  
    32    15    35 1   
    33    16    36 1   
    34    17    18 ar  
    35    17    19 ar  
    36    17    22 1   
    37    18    20 1   
    38    19    25 1   
    39    20    23 3   
    40    21    40 1   
    41    22    39 1   
    42    37    40 1   
    43    38    40 1   
@<TRIPOS>SUBSTRUCTURE
     1 DYR         1 TEMP              0 ****  ****    0 ROOT
