@<TRIPOS>MOLECULE
DYS
   33    33     1     0     0
SMALL
bcc


@<TRIPOS>ATOM
      1 O          -26.1160    46.5350   -53.9520 o          1 DYS      -0.825800
      2 C          -27.2550    46.2100   -53.5600 c          1 DYS       0.898600
      3 CA         -27.4110    46.0050   -52.0330 c3         1 DYS       0.015500
      4 N          -26.3020    45.3060   -51.3950 n8         1 DYS      -0.892800
      5 CB         -27.5300    47.3640   -51.3460 c3         1 DYS       0.047700
      6 SG         -28.8540    48.3780   -52.1060 ss         1 DYS      -0.262000
      7 CXP        -28.7220    49.8200   -51.0860 ca         1 DYS      -0.071100
      8 CXH        -29.5470    49.9930   -49.9770 ca         1 DYS      -0.074000
      9 CXQ        -27.7830    50.7880   -51.4340 ca         1 DYS       0.165100
     10 OXF        -26.9760    50.6810   -52.5040 oh         1 DYS      -0.481100
     11 CXO        -27.6590    51.9310   -50.6320 ca         1 DYS       0.078100
     12 OXE        -26.7270    52.8350   -51.0010 oh         1 DYS      -0.478100
     13 CXG        -28.4800    52.0830   -49.5260 ca         1 DYS      -0.180000
     14 CXN        -29.4370    51.1260   -49.1860 ca         1 DYS      -0.115300
     15 CXJ        -30.2960    51.2920   -47.9640 c3         1 DYS      -0.021100
     16 CXI        -29.7180    50.5600   -46.7550 c3         1 DYS       0.144800
     17 NXA        -30.5900    50.7100   -45.6010 n8         1 DYS      -0.888800
     18 OXT        -28.2830    46.0690   -54.2510 o          1 DYS      -0.825800
     19 HA         -28.3280    45.4420   -51.8390 h1         1 DYS       0.049700
     20 HN1        -26.3360    44.3290   -51.6620 hn         1 DYS       0.332800
     21 HN2        -25.4460    45.6630   -51.8050 hn         1 DYS       0.332800
     22 HB1        -26.5870    47.9090   -51.4280 h1         1 DYS       0.050200
     23 HB2        -27.7650    47.2350   -50.2890 h1         1 DYS       0.050200
     24 HXH        -30.2770    49.2290   -49.7390 ha         1 DYS       0.143000
     25 HOXF       -27.2330    49.8860   -52.9990 ho         1 DYS       0.467000
     26 HOXE       -26.7200    53.5760   -50.3850 ho         1 DYS       0.406000
     27 HXG        -28.3800    52.9740   -48.9140 ha         1 DYS       0.115000
     28 HXJ1       -30.4030    52.3540   -47.7250 hc         1 DYS       0.045200
     29 HXJ2       -31.3010    50.9080   -48.1550 hc         1 DYS       0.045200
     30 HXI1       -29.6410    49.4950   -46.9920 h1         1 DYS       0.034200
     31 HXI2       -28.6910    50.9130   -46.5860 h1         1 DYS       0.034200
     32 HXA1       -30.2190    50.1760   -44.8260 hn         1 DYS       0.330300
     33 HXA2       -30.5790    51.6750   -45.2960 hn         1 DYS       0.330300
@<TRIPOS>BOND
     1     1     2 1   
     2     2     3 1   
     3     2    18 1   
     4     3     4 1   
     5     3     5 1   
     6     3    19 1   
     7     4    20 1   
     8     4    21 1   
     9     5     6 1   
    10     5    22 1   
    11     5    23 1   
    12     6     7 1   
    13     7     8 ar  
    14     7     9 ar  
    15     8    14 ar  
    16     8    24 1   
    17     9    10 1   
    18     9    11 ar  
    19    10    25 1   
    20    11    12 1   
    21    11    13 ar  
    22    12    26 1   
    23    13    14 ar  
    24    13    27 1   
    25    14    15 1   
    26    15    16 1   
    27    15    28 1   
    28    15    29 1   
    29    16    17 1   
    30    16    30 1   
    31    16    31 1   
    32    17    32 1   
    33    17    33 1   
@<TRIPOS>SUBSTRUCTURE
     1 DYS         1 TEMP              0 ****  ****    0 ROOT
