@<TRIPOS>MOLECULE
DYS
   33    33     1     0     0
SMALL
No Charge or Current Charge


@<TRIPOS>ATOM
      1 O          -25.4650    45.7460   -51.5220 o          1 DYS      -0.720500
      2 C          -26.1720    45.9260   -52.5060 c          1 DYS       0.688000
      3 CA         -27.7370    45.9930   -52.3000 c3         1 DYS       0.015500
      4 N          -28.3780    44.7490   -51.7210 n8         1 DYS      -1.003200
      5 CB         -28.1190    47.2470   -51.4730 c3         1 DYS       0.095600
      6 SG         -27.6170    48.8050   -52.3410 ss         1 DYS      -0.183000
      7 CXP        -28.1570    50.1690   -51.2870 ca         1 DYS      -0.198000
      8 CXH        -28.7880    49.9460   -50.0430 ca         1 DYS      -0.056000
      9 CXQ        -27.9400    51.4940   -51.7170 ca         1 DYS       0.165100
     10 OXF        -27.3280    51.7010   -52.9210 oh         1 DYS      -0.520100
     11 CXO        -28.3510    52.5870   -50.9130 ca         1 DYS       0.078100
     12 OXE        -28.1480    53.8830   -51.3140 oh         1 DYS      -0.517100
     13 CXG        -28.9780    52.3470   -49.6790 ca         1 DYS      -0.162000
     14 CXN        -29.1990    51.0290   -49.2410 ca         1 DYS      -0.115300
     15 CXJ        -29.8750    50.7710   -47.8990 c3         1 DYS      -0.021100
     16 CXI        -28.8500    50.5230   -46.7710 c3         1 DYS       0.144800
     17 NXA        -29.5040    50.2730   -45.4680 n8         1 DYS      -0.999200
     18 OXT        -25.7390    45.9140   -53.6500 o          1 DYS      -0.720500
     19 HA         -28.1740    46.1300   -53.2990 h1         1 DYS       0.049700
     20 HN1        -28.1690    43.9490   -52.3320 hn         1 DYS       0.388000
     21 HN2        -27.8920    44.5060   -50.8480 hn         1 DYS       0.388000
     22 HB1        -27.6330    47.2090   -50.4910 h1         1 DYS       0.050200
     23 HB2        -29.2070    47.2700   -51.3280 h1         1 DYS       0.050200
     24 HXH        -28.9680    48.9390   -49.6800 ha         1 DYS       0.125000
     25 HOXF       -27.1380    50.8130   -53.2920 ho         1 DYS       0.506000
     26 HOXE       -28.5010    54.4820   -50.6240 ho         1 DYS       0.445000
     27 HXG        -29.2920    53.1820   -49.0570 ha         1 DYS       0.097000
     28 HXJ1       -30.5130    51.6210   -47.6270 hc         1 DYS       0.045200
     29 HXJ2       -30.5410    49.9020   -47.9770 hc         1 DYS       0.045200
     30 HXI1       -28.2290    49.6530   -47.0260 h1         1 DYS       0.034200
     31 HXI2       -28.1930    51.3990   -46.6750 h1         1 DYS       0.034200
     32 HXA1       -28.7810    50.1740   -44.7450 hn         1 DYS       0.385500
     33 HXA2       -30.0150    51.1180   -45.1830 hn         1 DYS       0.385500
@<TRIPOS>BOND
     1     1     2 1   
     2     2     3 1   
     3     2    18 1   
     4     3     4 1   
     5     3     5 1   
     6     3    19 1   
     7     4    20 1   
     8     4    21 1   
     9     5     6 1   
    10     5    22 1   
    11     5    23 1   
    12     6     7 1   
    13     7     8 ar  
    14     7     9 ar  
    15     8    14 ar  
    16     8    24 1   
    17     9    10 1   
    18     9    11 ar  
    19    10    25 1   
    20    11    12 1   
    21    11    13 ar  
    22    12    26 1   
    23    13    14 ar  
    24    13    27 1   
    25    14    15 1   
    26    15    16 1   
    27    15    28 1   
    28    15    29 1   
    29    16    17 1   
    30    16    30 1   
    31    16    31 1   
    32    17    32 1   
    33    17    33 1   
@<TRIPOS>SUBSTRUCTURE
     1 DYS         1 TEMP              0 ****  ****    0 ROOT
