@<TRIPOS>MOLECULE
DYT
   17    17     1     0     0
SMALL
bcc


@<TRIPOS>ATOM
      1 OAA          2.7710     0.3450     1.2940 o          1 DYT      -0.811300
      2 CAI          2.4810     0.4240     0.0890 c          1 DYT       0.935600
      3 OAB          3.2250     0.7200    -0.8610 o          1 DYT      -0.811300
      4 CAK          1.0080     0.1150    -0.2790 c3         1 DYT      -0.038300
      5 CL1          0.8150    -1.6950    -0.2170 cl         1 DYT      -0.298400
      6 CAF          0.0090     0.7630     0.6640 c3         1 DYT      -0.013100
      7 CAJ         -1.4180     0.5710     0.2900 cc         1 DYT      -0.176900
      8 CAE         -2.3000     1.3930    -0.3570 cd         1 DYT       0.264200
      9 NAG         -3.5200     0.7900    -0.4910 nd         1 DYT      -0.693000
     10 CAD         -3.3850    -0.3850     0.0680 cc         1 DYT       0.356400
     11 NAH         -2.1400    -0.5610     0.5520 na         1 DYT      -0.287900
     12 HAK          0.7970     0.3860    -1.3120 h1         1 DYT       0.060700
     13 HAG          0.2010     0.4210     1.6820 hc         1 DYT       0.070700
     14 HAF          0.2130     1.8370     0.6560 hc         1 DYT       0.070700
     15 HAE         -2.1090     2.3900    -0.7280 h4         1 DYT       0.029100
     16 HAD         -4.1490    -1.1420     0.1530 h5         1 DYT       0.037100
     17 HAH         -1.7970    -1.3890     1.0130 hn         1 DYT       0.306700
@<TRIPOS>BOND
     1     1     2 1   
     2     2     3 1   
     3     2     4 1   
     4     4     5 1   
     5     4     6 1   
     6     4    12 1   
     7     6     7 1   
     8     6    13 1   
     9     6    14 1   
    10     7     8 2   
    11     7    11 1   
    12     8     9 1   
    13     8    15 1   
    14     9    10 2   
    15    10    11 1   
    16    10    16 1   
    17    11    17 1   
@<TRIPOS>SUBSTRUCTURE
     1 DYT         1 TEMP              0 ****  ****    0 ROOT
