@<TRIPOS>MOLECULE
DYT
   17    17     1     0     0
SMALL
No Charge or Current Charge


@<TRIPOS>ATOM
      1 OAA          2.9000     0.6100     1.1760 o          1 DYT      -0.706000
      2 CAI          2.4950     0.4850     0.0260 c          1 DYT       0.725000
      3 OAB          3.1900     0.7230    -0.9550 o          1 DYT      -0.706000
      4 CAK          1.0310     0.0100    -0.2110 c3         1 DYT       0.038300
      5 Cl1          0.8540    -1.8170    -0.0660 cl         1 DYT      -0.375000
      6 CAF          0.0160     0.7420     0.7060 c3         1 DYT      -0.013100
      7 CAJ         -1.4250     0.5530     0.3000 cc         1 DYT      -0.162300
      8 CAE         -2.2860     1.4340    -0.3070 cd         1 DYT       0.198900
      9 NAG         -3.5270     0.8540    -0.4860 nd         1 DYT      -0.693000
     10 CAD         -3.4300    -0.3710     0.0090 cc         1 DYT       0.356400
     11 NAH         -2.1680    -0.5900     0.5020 na         1 DYT      -0.287500
     12 HAK          0.7850     0.2550    -1.2520 h1         1 DYT       0.060700
     13 HAG          0.1600     0.4110     1.7420 hc         1 DYT       0.070700
     14 HAF          0.2480     1.8140     0.6940 hc         1 DYT       0.070700
     15 HAE         -2.0810     2.4490    -0.6240 h4         1 DYT       0.029100
     16 HAD         -4.2110    -1.1230     0.0410 h5         1 DYT       0.037100
     17 HAH         -1.8480    -1.4560     0.9200 hn         1 DYT       0.357000
@<TRIPOS>BOND
     1     1     2 1   
     2     2     3 1   
     3     2     4 1   
     4     4     5 1   
     5     4     6 1   
     6     4    12 1   
     7     6     7 1   
     8     6    13 1   
     9     6    14 1   
    10     7     8 2   
    11     7    11 1   
    12     8     9 1   
    13     8    15 1   
    14     9    10 2   
    15    10    11 1   
    16    10    16 1   
    17    11    17 1   
@<TRIPOS>SUBSTRUCTURE
     1 DYT         1 TEMP              0 ****  ****    0 ROOT
