@<TRIPOS>MOLECULE
DYU
   50    53     1     0     0
SMALL
No Charge or Current Charge


@<TRIPOS>ATOM
      1 C10         -1.2690     0.9280    -0.0610 cc         1 DYU       0.036600
      2 C15         -2.1630    -1.3280    -0.4530 ca         1 DYU      -0.014200
      3 C17         -2.0220    -3.2400    -1.9630 ca         1 DYU      -0.114000
      4 C20         -1.9040    -2.1790     0.6490 ca         1 DYU      -0.053300
      5 C21         -1.8400    -1.6390     2.0760 c3         1 DYU      -0.053800
      6 C01          3.7460     1.2160     0.4550 ca         1 DYU      -0.052000
      7 C02          4.9740     0.5280     0.5160 ca         1 DYU      -0.082300
      8 C03          4.9920    -0.8810     0.4060 ca         1 DYU      -0.048300
      9 C04          3.7790    -1.5720     0.2380 ca         1 DYU      -0.117000
     10 C05          2.5570    -0.8830     0.1780 ca         1 DYU      -0.087000
     11 C06          2.5220     0.5290     0.2840 ca         1 DYU      -0.158600
     12 C07          1.2280     1.3210     0.2260 c          1 DYU       0.626700
     13 C11         -1.9580     2.1070     0.0510 cd         1 DYU      -0.210300
     14 C12         -3.3040     1.8640    -0.1060 cd         1 DYU       0.245300
     15 C16         -2.2210    -1.8660    -1.7520 ca         1 DYU      -0.084000
     16 C18         -1.7620    -4.0920    -0.8750 ca         1 DYU      -0.058300
     17 C19         -1.7040    -3.5560     0.4240 ca         1 DYU      -0.118000
     18 C23         -4.2320     3.0280    -0.0190 c5         1 DYU       0.058300
     19 C25         -1.4530     3.4870     0.2990 c5         1 DYU       0.190900
     20 N09          0.0830     0.5770     0.0070 ns         1 DYU      -0.404100
     21 N13         -3.6020     0.5970    -0.3180 nc         1 DYU      -0.474800
     22 N14         -2.3330     0.0460    -0.2810 na         1 DYU       0.189000
     23 O08          1.2220     2.5330     0.3720 o          1 DYU      -0.564100
     24 S24         -3.0650     4.4960     0.3170 ss         1 DYU      -0.478000
     25 H1          -2.0660    -3.6410    -2.9730 ha         1 DYU       0.121000
     26 H2          -2.7000    -0.9950     2.2970 hc         1 DYU       0.053033
     27 H3          -1.8430    -2.4470     2.8170 hc         1 DYU       0.053033
     28 H4          -0.9290    -1.0500     2.2360 hc         1 DYU       0.053033
     29 H5          -0.4730    -5.7990    -1.2280 hc         1 DYU       0.046033
     30 H6          -1.9060    -6.1710    -0.2540 hc         1 DYU       0.046033
     31 H7          -2.0630    -5.9320    -1.9980 hc         1 DYU       0.046033
     32 H8           6.8130    -1.5040     1.4230 hc         1 DYU       0.046367
     33 H9           6.1330    -2.7440     0.3650 hc         1 DYU       0.046367
     34 H10          6.9790    -1.3630    -0.3380 hc         1 DYU       0.046367
     35 H11          3.7450     2.3010     0.5410 ha         1 DYU       0.134000
     36 H12          3.7790    -2.6570     0.1540 ha         1 DYU       0.116000
     37 H13          1.6520    -1.4710     0.0510 ha         1 DYU       0.114000
     38 H14         -2.4160    -1.2150    -2.6020 ha         1 DYU       0.134000
     39 H15         -1.5000    -4.2160     1.2650 ha         1 DYU       0.117000
     40 H16         -4.7740     3.1560    -0.9650 h1         1 DYU       0.083200
     41 H17         -4.9450     2.8870     0.8040 h1         1 DYU       0.083200
     42 H18         -0.9390     3.5540     1.2670 h1         1 DYU       0.082200
     43 H19         -0.7920     3.8200    -0.5120 h1         1 DYU       0.082200
     44 H20          6.7850     1.0220     1.6190 hc         1 DYU       0.045700
     45 H21          6.9500     1.1620    -0.1410 hc         1 DYU       0.045700
     46 H22          6.0790     2.3990     0.7700 hc         1 DYU       0.045700
     47 H23          0.2840    -0.4050    -0.1150 hn         1 DYU       0.336500
     48 C22         -1.5400    -5.5790    -1.1010 c3         1 DYU      -0.050800
     49 C27          6.2660     1.3210     0.7010 c3         1 DYU      -0.048800
     50 C26          6.2990    -1.6650     0.4670 c3         1 DYU      -0.053800
@<TRIPOS>BOND
     1     1    13 2   
     2     1    20 1   
     3     1    22 1   
     4     2     4 ar  
     5     2    15 ar  
     6     2    22 1   
     7     3    15 ar  
     8     3    16 ar  
     9     3    25 1   
    10     4     5 1   
    11     4    17 ar  
    12     5    26 1   
    13     5    27 1   
    14     5    28 1   
    15     6     7 ar  
    16     6    11 ar  
    17     6    35 1   
    18     7     8 ar  
    19     7    49 1   
    20     8     9 ar  
    21     8    50 1   
    22     9    10 ar  
    23     9    36 1   
    24    10    11 ar  
    25    10    37 1   
    26    11    12 1   
    27    12    20 1   
    28    12    23 2   
    29    13    14 1   
    30    13    19 1   
    31    14    18 1   
    32    14    21 2   
    33    15    38 1   
    34    16    17 ar  
    35    16    48 1   
    36    17    39 1   
    37    18    24 1   
    38    18    40 1   
    39    18    41 1   
    40    19    24 1   
    41    19    42 1   
    42    19    43 1   
    43    20    47 1   
    44    21    22 1   
    45    29    48 1   
    46    30    48 1   
    47    31    48 1   
    48    32    50 1   
    49    33    50 1   
    50    34    50 1   
    51    44    49 1   
    52    45    49 1   
    53    46    49 1   
@<TRIPOS>SUBSTRUCTURE
     1 DYU         1 TEMP              0 ****  ****    0 ROOT
