@<TRIPOS>MOLECULE
DYU
   50    53     1     0     0
SMALL
bcc


@<TRIPOS>ATOM
      1 C10         -1.2200     0.9350    -0.1470 cc         1 DYU       0.087300
      2 C15         -2.0990    -1.3680    -0.4420 ca         1 DYU      -0.014200
      3 C17         -2.3260    -3.2880    -1.8670 ca         1 DYU      -0.132000
      4 C20         -1.6410    -2.1660     0.6090 ca         1 DYU      -0.053300
      5 C21         -1.2920    -1.6020     1.9540 c3         1 DYU      -0.053800
      6 C01          3.5630     1.1010     0.7080 ca         1 DYU      -0.070000
      7 C02          4.8200     0.5140     0.6680 ca         1 DYU      -0.082300
      8 C03          4.9220    -0.8640     0.4170 ca         1 DYU      -0.048300
      9 C04          3.7610    -1.6020     0.2140 ca         1 DYU      -0.135000
     10 C05          2.5110    -1.0040     0.2400 ca         1 DYU      -0.105000
     11 C06          2.4040     0.3610     0.4820 ca         1 DYU      -0.158600
     12 C07          1.0930     1.0560     0.5680 c          1 DYU       0.693700
     13 C11         -1.8130     2.1710    -0.0630 cd         1 DYU      -0.275600
     14 C12         -3.1800     1.8960    -0.1650 cd         1 DYU       0.310600
     15 C16         -2.4430    -1.9230    -1.6660 ca         1 DYU      -0.102000
     16 C18         -1.8500    -4.1120    -0.8510 ca         1 DYU      -0.058300
     17 C19         -1.5190    -3.5330     0.3700 ca         1 DYU      -0.136000
     18 C23         -4.1110     3.0590    -0.1240 c5         1 DYU       0.010400
     19 C25         -1.4240     3.6000     0.0560 c5         1 DYU       0.143000
     20 N09          0.0930     0.5020    -0.1750 ns         1 DYU      -0.471100
     21 N13         -3.4410     0.6170    -0.3030 nc         1 DYU      -0.474800
     22 N14         -2.2320     0.0330    -0.2700 na         1 DYU       0.138300
     23 O08          0.9180     2.0450     1.2540 o          1 DYU      -0.564100
     24 S24         -2.9960     4.5110    -0.2710 ss         1 DYU      -0.382200
     25 H1          -2.6050    -3.7120    -2.8240 ha         1 DYU       0.139000
     26 H2          -1.9330    -0.7670     2.2320 hc         1 DYU       0.053033
     27 H3          -1.3830    -2.3670     2.7240 hc         1 DYU       0.053033
     28 H4          -0.2610    -1.2430     1.9820 hc         1 DYU       0.053033
     29 H5          -0.6460    -5.8190    -1.3360 hc         1 DYU       0.046033
     30 H6          -1.9150    -6.1550    -0.1700 hc         1 DYU       0.046033
     31 H7          -2.3120    -5.9480    -1.8770 hc         1 DYU       0.046033
     32 H8           6.8200    -1.3890     1.2930 hc         1 DYU       0.046367
     33 H9           6.1630    -2.6040     0.1970 hc         1 DYU       0.046367
     34 H10          6.8780    -1.1240    -0.4370 hc         1 DYU       0.046367
     35 H11          3.4830     2.1630     0.9050 ha         1 DYU       0.152000
     36 H12          3.8340    -2.6680     0.0400 ha         1 DYU       0.134000
     37 H13          1.6350    -1.6260     0.0990 ha         1 DYU       0.132000
     38 H14         -2.8060    -1.2840    -2.4610 ha         1 DYU       0.152000
     39 H15         -1.1690    -4.1670     1.1770 ha         1 DYU       0.135000
     40 H16         -4.8160     3.0650    -0.9540 h1         1 DYU       0.083200
     41 H17         -4.6760     3.1010     0.8070 h1         1 DYU       0.083200
     42 H18         -1.0470     3.8510     1.0460 h1         1 DYU       0.082200
     43 H19         -0.6860     3.9130    -0.6810 h1         1 DYU       0.082200
     44 H20          6.5930     1.0040     1.7860 hc         1 DYU       0.045700
     45 H21          6.7450     1.2650     0.0590 hc         1 DYU       0.045700
     46 H22          5.8040     2.3900     1.0370 hc         1 DYU       0.045700
     47 H23          0.3170    -0.2460    -0.8150 hn         1 DYU       0.336500
     48 C22         -1.6790    -5.5870    -1.0690 c3         1 DYU      -0.050800
     49 C27          6.0510     1.3390     0.8990 c3         1 DYU      -0.048800
     50 C26          6.2610    -1.5330     0.3660 c3         1 DYU      -0.053800
@<TRIPOS>BOND
     1     1    13 2   
     2     1    20 1   
     3     1    22 1   
     4     2     4 ar  
     5     2    15 ar  
     6     2    22 1   
     7     3    15 ar  
     8     3    16 ar  
     9     3    25 1   
    10     4     5 1   
    11     4    17 ar  
    12     5    26 1   
    13     5    27 1   
    14     5    28 1   
    15     6     7 ar  
    16     6    11 ar  
    17     6    35 1   
    18     7     8 ar  
    19     7    49 1   
    20     8     9 ar  
    21     8    50 1   
    22     9    10 ar  
    23     9    36 1   
    24    10    11 ar  
    25    10    37 1   
    26    11    12 1   
    27    12    20 1   
    28    12    23 2   
    29    13    14 1   
    30    13    19 1   
    31    14    18 1   
    32    14    21 2   
    33    15    38 1   
    34    16    17 ar  
    35    16    48 1   
    36    17    39 1   
    37    18    24 1   
    38    18    40 1   
    39    18    41 1   
    40    19    24 1   
    41    19    42 1   
    42    19    43 1   
    43    20    47 1   
    44    21    22 1   
    45    29    48 1   
    46    30    48 1   
    47    31    48 1   
    48    32    50 1   
    49    33    50 1   
    50    34    50 1   
    51    44    49 1   
    52    45    49 1   
    53    46    49 1   
@<TRIPOS>SUBSTRUCTURE
     1 DYU         1 TEMP              0 ****  ****    0 ROOT
