@<TRIPOS>MOLECULE
DYV
   64    69     1     0     0
SMALL
No Charge or Current Charge


@<TRIPOS>ATOM
      1 C2           3.7600    -1.9460    -2.8510 ca         1 DYV      -0.063000
      2 C3           3.8200    -1.0190    -1.7980 ca         1 DYV      -0.137000
      3 C4           2.9290    -1.1150    -0.7050 ca         1 DYV       0.065800
      4 C5           1.9060    -2.0900    -0.7360 ca         1 DYV      -0.186600
      5 C6           1.8580    -3.0240    -1.7940 ca         1 DYV      -0.030000
      6 C7           0.8260    -2.0880     0.3200 c          1 DYV       0.588600
      7 C8           1.8800    -0.1230     1.2210 cc         1 DYV       0.529400
      8 C11          6.0630    -0.3460     0.2350 ca         1 DYV      -0.091000
      9 C12          7.4200    -0.2660    -0.1080 ca         1 DYV      -0.123000
     10 C13          8.0270     0.9830    -0.3080 ca         1 DYV      -0.160000
     11 C14          7.2750     2.1680    -0.1460 ca         1 DYV       0.101100
     12 C18         -1.5800    -0.3930     1.5970 ca         1 DYV      -0.094300
     13 C19         -1.5700     0.8380     0.9100 ca         1 DYV      -0.108000
     14 C20         -2.7420     1.3430     0.3230 ca         1 DYV      -0.071000
     15 C21         -3.9510     0.6230     0.3960 ca         1 DYV      -0.103600
     16 C22         -3.9700    -0.5920     1.1150 ca         1 DYV      -0.065000
     17 C23         -2.8000    -1.1000     1.7050 ca         1 DYV       0.115000
     18 C25         -5.8150    -0.9990    -1.3540 c5         1 DYV       0.108000
     19 C26         -6.9360    -1.2080    -2.4060 c5         1 DYV      -0.101400
     20 C27         -8.1480    -0.5360    -1.7170 c5         1 DYV      -0.076400
     21 C28         -7.5050     0.7930    -1.2310 c5         1 DYV      -0.032300
     22 C1           2.7930    -2.9600    -2.8390 ca         1 DYV      -0.136000
     23 N1           0.8270    -1.0170     1.2290 n          1 DYV      -0.369300
     24 N2           2.9450    -0.2450     0.3890 na         1 DYV      -0.279800
     25 C9           3.8700     0.7080     0.7590 cc         1 DYV       0.452000
     26 N3           3.3100     1.4570     1.7020 nd         1 DYV      -0.356000
     27 N4           2.0650     0.9310     1.9990 nd         1 DYV      -0.362000
     28 C10          5.2770     0.8220     0.3580 ca         1 DYV      -0.209500
     29 C15          9.2290     3.5980    -0.6670 c3         1 DYV       0.145900
     30 C16          5.9030     2.0840     0.2070 ca         1 DYV       0.171100
     31 O2           5.1800     3.2370     0.3840 oh         1 DYV      -0.512100
     32 Cl1         -2.9200    -2.6210     2.5910 cl         1 DYV      -0.226000
     33 C24         -5.2000     1.1990    -0.2390 c          1 DYV       0.616700
     34 O3          -5.3930     2.4100    -0.2430 o          1 DYV      -0.594100
     35 N5          -6.1690     0.3140    -0.7650 n          1 DYV      -0.369800
     36 C29         -8.4160     1.4570    -0.1410 c          1 DYV       0.729000
     37 O4          -9.0810     2.4360    -0.4510 o          1 DYV      -0.718500
     38 O5          -8.4210     1.0110     1.0000 o          1 DYV      -0.718500
     39 O6          -0.0260    -2.9660     0.3610 o          1 DYV      -0.511000
     40 H1           4.4610    -1.8720    -3.6800 ha         1 DYV       0.120000
     41 H2           4.5540    -0.2240    -1.8610 ha         1 DYV       0.143000
     42 H3           1.0830    -3.7880    -1.8220 ha         1 DYV       0.144000
     43 H4           5.6190    -1.3260     0.4040 ha         1 DYV       0.121000
     44 H5           8.0060    -1.1770    -0.2130 ha         1 DYV       0.115000
     45 H6           9.0790     1.0110    -0.5740 ha         1 DYV       0.117000
     46 H7           0.0110    -0.2290     3.0260 h1         1 DYV       0.087200
     47 H8          -0.4190    -1.8890     2.6810 h1         1 DYV       0.087200
     48 H9          -0.6500     1.4100     0.8280 ha         1 DYV       0.102000
     49 H10         -2.7050     2.2950    -0.2040 ha         1 DYV       0.130000
     50 H11         -4.8990    -1.1370     1.2520 ha         1 DYV       0.154000
     51 H13         -4.8160    -0.9980    -1.8120 h1         1 DYV       0.032200
     52 H14         -6.6910    -0.7070    -3.3500 hc         1 DYV       0.031700
     53 H15         -7.1070    -2.2670    -2.6310 hc         1 DYV       0.031700
     54 H16         -8.9880    -0.3700    -2.4010 hc         1 DYV       0.049200
     55 H17         -8.5160    -1.1430    -0.8810 hc         1 DYV       0.049200
     56 H18         -7.3840     1.4990    -2.0630 h1         1 DYV       0.049700
     57 H19          2.7460    -3.6770    -3.6550 ha         1 DYV       0.124000
     58 H20          9.8870     3.1610     0.0950 h1         1 DYV       0.039033
     59 H21          9.4470     3.1290    -1.6350 h1         1 DYV       0.039033
     60 H22          9.4650     4.6670    -0.7470 h1         1 DYV       0.039033
     61 H23          4.3520     3.0080     0.8610 ho         1 DYV       0.500000
     62 C17         -0.2770    -0.9080     2.2130 c3         1 DYV       0.155300
     63 H12         -5.8530    -1.7910    -0.5970 h1         1 DYV       0.032200
     64 O1           7.8460     3.4200    -0.3130 os         1 DYV      -0.312100
@<TRIPOS>BOND
     1     1     2 ar  
     2     1    22 ar  
     3     1    40 1   
     4     2     3 ar  
     5     2    41 1   
     6     3     4 ar  
     7     3    24 1   
     8     4     5 ar  
     9     4     6 1   
    10     5    22 ar  
    11     5    42 1   
    12     6    23 1   
    13     6    39 2   
    14     7    23 1   
    15     7    24 1   
    16     7    27 2   
    17     8     9 ar  
    18     8    28 ar  
    19     8    43 1   
    20     9    10 ar  
    21     9    44 1   
    22    10    11 ar  
    23    10    45 1   
    24    11    30 ar  
    25    11    64 1   
    26    12    13 ar  
    27    12    17 ar  
    28    12    62 1   
    29    13    14 ar  
    30    13    48 1   
    31    14    15 ar  
    32    14    49 1   
    33    15    16 ar  
    34    15    33 1   
    35    16    17 ar  
    36    16    50 1   
    37    17    32 1   
    38    18    19 1   
    39    18    35 1   
    40    18    51 1   
    41    18    63 1   
    42    19    20 1   
    43    19    52 1   
    44    19    53 1   
    45    20    21 1   
    46    20    54 1   
    47    20    55 1   
    48    21    35 1   
    49    21    36 1   
    50    21    56 1   
    51    22    57 1   
    52    23    62 1   
    53    24    25 1   
    54    25    26 2   
    55    25    28 1   
    56    26    27 1   
    57    28    30 ar  
    58    29    58 1   
    59    29    59 1   
    60    29    60 1   
    61    29    64 1   
    62    30    31 1   
    63    31    61 1   
    64    33    34 2   
    65    33    35 1   
    66    36    37 1   
    67    36    38 1   
    68    46    62 1   
    69    47    62 1   
@<TRIPOS>SUBSTRUCTURE
     1 DYV         1 TEMP              0 ****  ****    0 ROOT
