@<TRIPOS>MOLECULE
DYV
   64    69     1     0     0
SMALL
bcc


@<TRIPOS>ATOM
      1 C2           4.5630    -2.1930    -2.9380 ca         1 DYV      -0.081000
      2 C3           4.3500    -1.3820    -1.8380 ca         1 DYV      -0.155000
      3 C4           3.2970    -1.6650    -0.9780 ca         1 DYV       0.065800
      4 C5           2.4250    -2.7210    -1.2570 ca         1 DYV      -0.186600
      5 C6           2.6620    -3.5290    -2.3690 ca         1 DYV      -0.048000
      6 C7           1.2100    -2.9690    -0.4590 c          1 DYV       0.731100
      7 C8           1.8210    -1.0340     0.8160 cc         1 DYV       0.529400
      8 C11          6.0710    -0.1160     0.5110 ca         1 DYV      -0.109000
      9 C12          7.3170     0.4290     0.2980 ca         1 DYV      -0.141000
     10 C13          7.4630     1.8070     0.1370 ca         1 DYV      -0.178000
     11 C14          6.3630     2.6440     0.2170 ca         1 DYV       0.101100
     12 C18         -1.3830    -1.2780     0.7990 ca         1 DYV      -0.094300
     13 C19         -1.3100    -0.6040    -0.4140 ca         1 DYV      -0.126000
     14 C20         -2.3600     0.1750    -0.8720 ca         1 DYV      -0.089000
     15 C21         -3.5320     0.2790    -0.1340 ca         1 DYV      -0.103600
     16 C22         -3.6230    -0.3800     1.0850 ca         1 DYV      -0.083000
     17 C23         -2.5580    -1.1420     1.5330 ca         1 DYV       0.023400
     18 C25         -6.2940    -0.6770    -0.4020 c5         1 DYV       0.108000
     19 C26         -7.6150    -0.7360    -1.1550 c5         1 DYV      -0.101400
     20 C27         -8.1980     0.6490    -0.8980 c5         1 DYV      -0.076400
     21 C28         -6.9800     1.5790    -0.9720 c5         1 DYV      -0.032300
     22 C1           3.7330    -3.2780    -3.2010 ca         1 DYV      -0.154000
     23 N1           0.9500    -2.0460     0.5320 n          1 DYV      -0.436300
     24 N2           3.0080    -0.9030     0.1620 na         1 DYV      -0.279800
     25 C9           3.6110     0.1660     0.7910 cc         1 DYV       0.452000
     26 N3           2.8000     0.6310     1.6950 nd         1 DYV      -0.356000
     27 N4           1.6680    -0.1150     1.7170 nd         1 DYV      -0.362000
     28 C10          4.9450     0.7150     0.5580 ca         1 DYV      -0.209500
     29 C15          7.6460     4.5990    -0.1380 c3         1 DYV       0.122700
     30 C16          5.0870     2.0980     0.4590 ca         1 DYV       0.171100
     31 O2           4.0680     2.9640     0.5620 oh         1 DYV      -0.473100
     32 CL1         -2.7110    -1.9510     3.0610 cl         1 DYV      -0.134400
     33 C24         -4.6250     1.1770    -0.6220 c          1 DYV       0.683700
     34 O3          -4.3430     2.3020    -1.0270 o          1 DYV      -0.594100
     35 N5          -5.8730     0.7050    -0.6090 n          1 DYV      -0.436800
     36 C29         -7.1470     2.7880    -0.0300 c          1 DYV       0.939600
     37 O4          -7.7890     3.7420    -0.5120 o          1 DYV      -0.823800
     38 O5          -6.6910     2.6850     1.1210 o          1 DYV      -0.823800
     39 O6           0.4510    -3.8900    -0.6730 o          1 DYV      -0.586500
     40 H1           5.3850    -1.9670    -3.6040 ha         1 DYV       0.138000
     41 H2           4.9990    -0.5370    -1.6750 ha         1 DYV       0.161000
     42 H3           1.9850    -4.3450    -2.5790 ha         1 DYV       0.162000
     43 H4           5.9570    -1.1840     0.6420 ha         1 DYV       0.139000
     44 H5           8.1890    -0.2090     0.2580 ha         1 DYV       0.133000
     45 H6           8.4510     2.2110    -0.0370 ha         1 DYV       0.135000
     46 H7          -0.0150    -1.8470     2.3490 h1         1 DYV       0.087200
     47 H8          -0.5660    -3.1800     1.3590 h1         1 DYV       0.087200
     48 H9          -0.4180    -0.6730    -1.0230 ha         1 DYV       0.120000
     49 H10         -2.2630     0.6970    -1.8140 ha         1 DYV       0.148000
     50 H11         -4.5090    -0.2900     1.7000 ha         1 DYV       0.172000
     51 H13         -5.5530    -1.3820    -0.7780 h1         1 DYV       0.032200
     52 H14         -7.4360    -0.8870    -2.2210 hc         1 DYV       0.031700
     53 H15         -8.2530    -1.5450    -0.8000 hc         1 DYV       0.031700
     54 H16         -8.9730     0.9320    -1.6080 hc         1 DYV       0.049200
     55 H17         -8.6380     0.6780     0.1030 hc         1 DYV       0.049200
     56 H18         -6.8470     1.9330    -2.0000 h1         1 DYV       0.049700
     57 H19          3.9120    -3.9070    -4.0610 ha         1 DYV       0.142000
     58 H20          8.3510     4.4150     0.6780 h1         1 DYV       0.039033
     59 H21          8.1000     4.2660    -1.0750 h1         1 DYV       0.039033
     60 H22          7.4550     5.6680    -0.2020 h1         1 DYV       0.039033
     61 H23          3.3030     2.5290     0.9700 ho         1 DYV       0.461000
     62 C17         -0.2610    -2.1350     1.3270 c3         1 DYV       0.155300
     63 H12         -6.4570    -0.8880     0.6590 h1         1 DYV       0.032200
     64 O1           6.3960     3.9820     0.0940 os         1 DYV      -0.288900
@<TRIPOS>BOND
     1     1     2 ar  
     2     1    22 ar  
     3     1    40 1   
     4     2     3 ar  
     5     2    41 1   
     6     3     4 ar  
     7     3    24 1   
     8     4     5 ar  
     9     4     6 1   
    10     5    22 ar  
    11     5    42 1   
    12     6    23 1   
    13     6    39 2   
    14     7    23 1   
    15     7    24 1   
    16     7    27 2   
    17     8     9 ar  
    18     8    28 ar  
    19     8    43 1   
    20     9    10 ar  
    21     9    44 1   
    22    10    11 ar  
    23    10    45 1   
    24    11    30 ar  
    25    11    64 1   
    26    12    13 ar  
    27    12    17 ar  
    28    12    62 1   
    29    13    14 ar  
    30    13    48 1   
    31    14    15 ar  
    32    14    49 1   
    33    15    16 ar  
    34    15    33 1   
    35    16    17 ar  
    36    16    50 1   
    37    17    32 1   
    38    18    19 1   
    39    18    35 1   
    40    18    51 1   
    41    18    63 1   
    42    19    20 1   
    43    19    52 1   
    44    19    53 1   
    45    20    21 1   
    46    20    54 1   
    47    20    55 1   
    48    21    35 1   
    49    21    36 1   
    50    21    56 1   
    51    22    57 1   
    52    23    62 1   
    53    24    25 1   
    54    25    26 2   
    55    25    28 1   
    56    26    27 1   
    57    28    30 ar  
    58    29    58 1   
    59    29    59 1   
    60    29    60 1   
    61    29    64 1   
    62    30    31 1   
    63    31    61 1   
    64    33    34 2   
    65    33    35 1   
    66    36    37 1   
    67    36    38 1   
    68    46    62 1   
    69    47    62 1   
@<TRIPOS>SUBSTRUCTURE
     1 DYV         1 TEMP              0 ****  ****    0 ROOT
