@<TRIPOS>MOLECULE
DYX
   57    61     1     0     0
SMALL
abcg2


@<TRIPOS>ATOM
      1 C10         -0.3410    -3.3420     1.1410 ca         1 DYX      -0.058000
      2 C13          0.9920    -3.8340    -1.2530 ca         1 DYX      -0.172500
      3 C17         -4.9090    -0.3450     0.7110 c5         1 DYX      -0.286700
      4 C22          1.5120     1.5330    -1.6170 c5         1 DYX      -0.082700
      5 C24          1.3880     2.1130    -4.0010 c5         1 DYX      -0.079900
      6 C26          2.0710     0.3650    -2.4530 c5         1 DYX      -0.067400
      7 C28          1.8710     2.9140     0.4490 ca         1 DYX      -0.097500
      8 C04         -1.4410    -0.2660    -0.1660 cc         1 DYX       0.063600
      9 C05         -2.6580     0.3400     0.0190 cd         1 DYX      -0.222300
     10 C06         -3.5090    -0.7150     0.3840 cd         1 DYX       0.253300
     11 C09         -0.6550    -2.6070     0.0020 ca         1 DYX      -0.049200
     12 C11          0.6280    -4.3220     1.0810 ca         1 DYX      -0.172500
     13 C12          1.3120    -4.5700    -0.1140 ca         1 DYX       0.156100
     14 C14          0.0010    -2.8640    -1.1900 ca         1 DYX      -0.058000
     15 C19         -3.2470     1.7000     0.0420 c5         1 DYX      -0.138100
     16 C23          1.6570     2.7030    -2.6050 c5         1 DYX      -0.067400
     17 C25          1.4560     0.5810    -3.8330 c5         1 DYX      -0.079900
     18 C27          2.2100     1.7840    -0.2970 ca         1 DYX      -0.086300
     19 C29          2.4720     3.1820     1.6670 ca         1 DYX      -0.099000
     20 C30          3.4290     2.3040     2.1540 ca         1 DYX       0.125000
     21 C31          3.7820     1.1720     1.4420 ca         1 DYX      -0.099000
     22 C32          3.1690     0.9200     0.2210 ca         1 DYX      -0.097500
     23 N03         -0.1900     0.2160    -0.4860 ns         1 DYX      -0.404100
     24 N07         -2.8980    -1.8730     0.4330 nc         1 DYX      -0.452800
     25 N08         -1.6370    -1.5910     0.0670 na         1 DYX       0.196000
     26 O02         -0.8840     1.8820    -1.8380 o          1 DYX      -0.554100
     27 O15          2.2500    -5.5270    -0.0710 os         1 DYX      -0.335100
     28 S18         -4.6950     1.4190     1.1220 s6         1 DYX       1.022000
     29 CL1          4.1880     2.6290     3.6770 cl         1 DYX      -0.193000
     30 H1          -0.8530    -3.1450     2.0740 ha         1 DYX       0.134500
     31 H2           1.4880    -4.0050    -2.1980 ha         1 DYX       0.131500
     32 H3          -5.5820    -0.4130    -0.1450 h1         1 DYX       0.117200
     33 H4          -5.3410    -0.8580     1.5690 h1         1 DYX       0.117200
     34 H5           0.4160     2.4210    -4.3840 hc         1 DYX       0.050700
     35 H6           2.1350     2.4660    -4.7130 hc         1 DYX       0.050700
     36 H7           3.1570     0.4690    -2.5060 hc         1 DYX       0.054450
     37 H8           1.8640    -0.6270    -2.0440 hc         1 DYX       0.054450
     38 H9           1.1230     3.6050     0.0780 ha         1 DYX       0.122000
     39 H10          0.8740    -4.8980     1.9640 ha         1 DYX       0.131500
     40 H11         -0.2630    -2.3160    -2.0860 ha         1 DYX       0.134500
     41 H12          2.3620    -6.1680    -2.0530 h1         1 DYX       0.045367
     42 H13          3.5450    -4.9220    -1.5890 h1         1 DYX       0.045367
     43 H14          3.7100    -6.5780    -0.9770 h1         1 DYX       0.045367
     44 H15         -2.6350     2.4740     0.5030 h1         1 DYX       0.111700
     45 H16         -3.6090     2.0420    -0.9290 h1         1 DYX       0.111700
     46 H17          1.0090     3.5450    -2.3640 hc         1 DYX       0.054450
     47 H18          2.6860     3.0640    -2.5380 hc         1 DYX       0.054450
     48 H19          0.4550     0.1440    -3.8740 hc         1 DYX       0.050700
     49 H20          2.0390     0.0950    -4.6150 hc         1 DYX       0.050700
     50 H21          2.1950     4.0640     2.2280 ha         1 DYX       0.134000
     51 H22          4.5270     0.4880     1.8250 ha         1 DYX       0.134000
     52 H23          3.4650     0.0300    -0.3210 ha         1 DYX       0.122000
     53 H24          0.6060    -0.2450    -0.0690 hn         1 DYX       0.339500
     54 O20         -4.2470     1.5010     2.5100 o          1 DYX      -0.512500
     55 C16          2.9970    -5.8020    -1.2420 c3         1 DYX       0.146900
     56 O21         -5.8440     2.2160     0.7110 o          1 DYX      -0.512500
     57 C01          0.0300     1.2600    -1.3400 c          1 DYX       0.620100
@<TRIPOS>BOND
     1     1    11 ar  
     2     1    12 ar  
     3     1    30 1   
     4     2    13 ar  
     5     2    14 ar  
     6     2    31 1   
     7     3    10 1   
     8     3    28 1   
     9     3    32 1   
    10     3    33 1   
    11     4     6 1   
    12     4    16 1   
    13     4    18 1   
    14     4    57 1   
    15     5    16 1   
    16     5    17 1   
    17     5    34 1   
    18     5    35 1   
    19     6    17 1   
    20     6    36 1   
    21     6    37 1   
    22     7    18 ar  
    23     7    19 ar  
    24     7    38 1   
    25     8     9 2   
    26     8    23 1   
    27     8    25 1   
    28     9    10 1   
    29     9    15 1   
    30    10    24 2   
    31    11    14 ar  
    32    11    25 1   
    33    12    13 ar  
    34    12    39 1   
    35    13    27 1   
    36    14    40 1   
    37    15    28 1   
    38    15    44 1   
    39    15    45 1   
    40    16    46 1   
    41    16    47 1   
    42    17    48 1   
    43    17    49 1   
    44    18    22 ar  
    45    19    20 ar  
    46    19    50 1   
    47    20    21 ar  
    48    20    29 1   
    49    21    22 ar  
    50    21    51 1   
    51    22    52 1   
    52    23    53 1   
    53    23    57 1   
    54    24    25 1   
    55    26    57 2   
    56    27    55 1   
    57    28    54 2   
    58    28    56 2   
    59    41    55 1   
    60    42    55 1   
    61    43    55 1   
@<TRIPOS>SUBSTRUCTURE
     1 DYX         1 TEMP              0 ****  ****    0 ROOT
