@<TRIPOS>MOLECULE
DYX
   57    61     1     0     0
SMALL
No Charge or Current Charge


@<TRIPOS>ATOM
      1 C10          0.1460    -2.1520     2.1290 ca         1 DYX      -0.058000
      2 C13          1.3420    -3.5780     0.0200 ca         1 DYX      -0.172500
      3 C17         -5.0100    -0.5680     0.8550 c5         1 DYX      -0.286700
      4 C22          1.1970     1.6290    -2.0100 c5         1 DYX      -0.082700
      5 C24          1.1660     3.6520    -3.4470 c5         1 DYX      -0.079900
      6 C26          1.4780     1.2190    -3.4910 c5         1 DYX      -0.067400
      7 C28          2.3780     1.3970     0.2590 ca         1 DYX      -0.097500
      8 C04         -1.5730    -0.2130    -0.2240 cc         1 DYX       0.063600
      9 C05         -2.8930     0.1270    -0.1440 cd         1 DYX      -0.222300
     10 C06         -3.5490    -0.7680     0.6720 cd         1 DYX       0.253300
     11 C09         -0.4230    -2.1050     0.8430 ca         1 DYX      -0.049200
     12 C11          1.3080    -2.9090     2.3590 ca         1 DYX      -0.172500
     13 C12          1.9100    -3.6250     1.3120 ca         1 DYX       0.156100
     14 C14          0.1810    -2.8190    -0.2110 ca         1 DYX      -0.058000
     15 C19         -3.6730     1.2250    -0.7930 c5         1 DYX      -0.138100
     16 C23          1.6500     3.1280    -2.0550 c5         1 DYX      -0.067400
     17 C25          0.8300     2.3800    -4.2880 c5         1 DYX      -0.079900
     18 C27          2.1590     0.8810    -1.0410 ca         1 DYX      -0.086300
     19 C29          3.1970     0.7220     1.1800 ca         1 DYX      -0.099000
     20 C30          3.8070    -0.4870     0.8230 ca         1 DYX       0.125000
     21 C31          3.5890    -1.0270    -0.4520 ca         1 DYX      -0.099000
     22 C32          2.7660    -0.3570    -1.3730 ca         1 DYX      -0.097500
     23 N03         -0.4790     0.3290    -0.8950 ns         1 DYX      -0.404100
     24 N07         -2.7780    -1.7080     1.1720 nc         1 DYX      -0.452800
     25 N08         -1.5650    -1.3400     0.6070 na         1 DYX       0.196000
     26 O02         -1.2170     2.2950    -1.8480 o          1 DYX      -0.554100
     27 O15          3.0450    -4.3550     1.6010 os         1 DYX      -0.335100
     28 S18         -5.4490     0.9240    -0.2130 s6         1 DYX       1.022000
     29 Cl1          4.8370    -1.3280     1.9740 cl         1 DYX      -0.193000
     30 H1          -0.3110    -1.5990     2.9480 ha         1 DYX       0.134500
     31 H2           1.7830    -4.1200    -0.8110 ha         1 DYX       0.131500
     32 H3          -5.5850    -1.4270     0.4940 h1         1 DYX       0.117200
     33 H4          -5.2570    -0.3270     1.8930 h1         1 DYX       0.117200
     34 H5           0.2860     4.2980    -3.3490 hc         1 DYX       0.050700
     35 H6           1.9440     4.2570    -3.9270 hc         1 DYX       0.050700
     36 H7           2.5530     1.1690    -3.7050 hc         1 DYX       0.054450
     37 H8           1.0430     0.2490    -3.7570 hc         1 DYX       0.054450
     38 H9           1.9020     2.3240     0.5700 ha         1 DYX       0.122000
     39 H10          1.7450    -2.9410     3.3530 ha         1 DYX       0.131500
     40 H11         -0.2530    -2.7900    -1.2090 ha         1 DYX       0.134500
     41 H12          3.1020    -5.8790     0.1620 h1         1 DYX       0.045367
     42 H13          4.1060    -4.4500    -0.2050 h1         1 DYX       0.045367
     43 H14          4.6210    -5.6060     1.0400 h1         1 DYX       0.045367
     44 H15         -3.3730     2.2170    -0.4380 h1         1 DYX       0.111700
     45 H16         -3.6580     1.1640    -1.8870 h1         1 DYX       0.111700
     46 H17          1.2400     3.7220    -1.2300 hc         1 DYX       0.054450
     47 H18          2.7420     3.2120    -1.9890 hc         1 DYX       0.054450
     48 H19         -0.2540     2.2430    -4.3830 hc         1 DYX       0.050700
     49 H20          1.2250     2.4460    -5.3080 hc         1 DYX       0.050700
     50 H21          3.3550     1.1350     2.1730 ha         1 DYX       0.134000
     51 H22          4.0540    -1.9700    -0.7240 ha         1 DYX       0.134000
     52 H23          2.6060    -0.8230    -2.3420 ha         1 DYX       0.122000
     53 H24          0.3970    -0.1660    -0.7850 hn         1 DYX       0.339500
     54 O20         -5.8970     2.0300     0.6440 o          1 DYX      -0.512500
     55 C16          3.7500    -5.1070     0.5980 c3         1 DYX       0.146900
     56 O21         -6.2830     0.4920    -1.3430 o          1 DYX      -0.512500
     57 C01         -0.3270     1.4860    -1.6360 c          1 DYX       0.620100
@<TRIPOS>BOND
     1     1    11 ar  
     2     1    12 ar  
     3     1    30 1   
     4     2    13 ar  
     5     2    14 ar  
     6     2    31 1   
     7     3    10 1   
     8     3    28 1   
     9     3    32 1   
    10     3    33 1   
    11     4     6 1   
    12     4    16 1   
    13     4    18 1   
    14     4    57 1   
    15     5    16 1   
    16     5    17 1   
    17     5    34 1   
    18     5    35 1   
    19     6    17 1   
    20     6    36 1   
    21     6    37 1   
    22     7    18 ar  
    23     7    19 ar  
    24     7    38 1   
    25     8     9 2   
    26     8    23 1   
    27     8    25 1   
    28     9    10 1   
    29     9    15 1   
    30    10    24 2   
    31    11    14 ar  
    32    11    25 1   
    33    12    13 ar  
    34    12    39 1   
    35    13    27 1   
    36    14    40 1   
    37    15    28 1   
    38    15    44 1   
    39    15    45 1   
    40    16    46 1   
    41    16    47 1   
    42    17    48 1   
    43    17    49 1   
    44    18    22 ar  
    45    19    20 ar  
    46    19    50 1   
    47    20    21 ar  
    48    20    29 1   
    49    21    22 ar  
    50    21    51 1   
    51    22    52 1   
    52    23    53 1   
    53    23    57 1   
    54    24    25 1   
    55    26    57 2   
    56    27    55 1   
    57    28    54 2   
    58    28    56 2   
    59    41    55 1   
    60    42    55 1   
    61    43    55 1   
@<TRIPOS>SUBSTRUCTURE
     1 DYX         1 TEMP              0 ****  ****    0 ROOT
