@<TRIPOS>MOLECULE
DYY
   48    51     1     0     0
SMALL
bcc


@<TRIPOS>ATOM
      1 CAY         -2.7500     0.3530     0.6620 ca         1 DYY      -0.030000
      2 CAZ         -3.1980    -0.9490     0.5080 ca         1 DYY       0.030100
      3 OBA         -3.6850    -1.5960     1.5870 os         1 DYY      -0.300900
      4 CBB         -4.4730    -2.7360     1.2710 c6         1 DYY       0.093400
      5 CAO         -3.7640    -3.5800     0.2420 c6         1 DYY       0.092400
      6 OAN         -3.5410    -2.8280    -0.9450 os         1 DYY      -0.303900
      7 CAM         -3.1470    -1.5570    -0.7540 ca         1 DYY       0.112100
      8 CAL         -2.6750    -0.8410    -1.8480 ca         1 DYY      -0.154000
      9 CAK         -2.2360     0.4610    -1.7020 ca         1 DYY      -0.030000
     10 CAX         -2.2640     1.0440    -0.4400 ca         1 DYY      -0.316500
     11 SAW         -1.6030     2.6660    -0.2140 sy         1 DYY       1.287200
     12 OBD         -1.7190     3.3930    -1.4660 o          1 DYY      -0.597300
     13 OAJ         -2.1660     3.2290     1.0010 o          1 DYY      -0.597300
     14 NAV          0.0270     2.4520     0.0690 n3         1 DYY      -0.689500
     15 CAU          0.8090     1.9980    -1.0830 c6         1 DYY       0.151800
     16 CAT          2.2910     2.1130    -0.7680 c6         1 DYY       0.206800
     17 CAI          0.3450     1.7330     1.3050 c6         1 DYY       0.151800
     18 CAH          1.8310     1.8510     1.5930 c6         1 DYY       0.206800
     19 NAG          2.6460     1.4200     0.4640 n3         1 DYY      -0.744500
     20 SAF          3.3090    -0.0770     0.4190 sy         1 DYY       1.326200
     21 OAS          4.2930    -0.0790    -0.6420 o          1 DYY      -0.588800
     22 OAB          3.7200    -0.4080     1.7680 o          1 DYY      -0.588800
     23 CAE          2.0180    -1.2290    -0.0450 ca         1 DYY      -0.390500
     24 CAD          1.1990    -1.8330     0.9100 ca         1 DYY       0.256400
     25 FAA          1.3430    -1.5170     2.1950 f          1 DYY      -0.111400
     26 CAC          0.2080    -2.7310     0.5760 ca         1 DYY      -0.215500
     27 CAP          0.0140    -3.0460    -0.7580 ca         1 DYY      -0.023000
     28 CAQ          0.7900    -2.4620    -1.7450 ca         1 DYY      -0.215500
     29 CAR          1.7740    -1.5680    -1.3770 ca         1 DYY       0.256400
     30 FBC          2.4810    -0.9950    -2.3470 f          1 DYY      -0.111400
     31 HAY         -2.8010     0.8090     1.6420 ha         1 DYY       0.170000
     32 HBB         -4.6110    -3.2970     2.1930 h1         1 DYY       0.076200
     33 HBBA        -5.4550    -2.4220     0.9020 h1         1 DYY       0.076200
     34 HAO         -2.8100    -3.9430     0.6380 h1         1 DYY       0.070700
     35 HAOA        -4.3690    -4.4420    -0.0340 h1         1 DYY       0.070700
     36 HAL         -2.6530    -1.3180    -2.8190 ha         1 DYY       0.152000
     37 HAK         -1.8800     1.0030    -2.5670 ha         1 DYY       0.158000
     38 HAU          0.5520     0.9660    -1.3530 h1         1 DYY       0.063950
     39 HAUA         0.5960     2.6310    -1.9410 h1         1 DYY       0.063950
     40 HAT          2.8760     1.7450    -1.6080 h1         1 DYY       0.085450
     41 HATA         2.5540     3.1640    -0.6300 h1         1 DYY       0.085450
     42 HAI         -0.1970     2.1760     2.1380 h1         1 DYY       0.063950
     43 HAIA         0.0480     0.6800     1.2360 h1         1 DYY       0.063950
     44 HAH          2.0830     2.8960     1.7860 h1         1 DYY       0.085450
     45 HAHA         2.0830     1.2890     2.4890 h1         1 DYY       0.085450
     46 HAC         -0.3950    -3.1750     1.3570 ha         1 DYY       0.160500
     47 HAP         -0.7570    -3.7510    -1.0380 ha         1 DYY       0.146000
     48 HAQ          0.6370    -2.6910    -2.7910 ha         1 DYY       0.160500
@<TRIPOS>BOND
     1     1     2 ar  
     2     1    10 ar  
     3     1    31 1   
     4     2     3 1   
     5     2     7 ar  
     6     3     4 1   
     7     4     5 1   
     8     4    32 1   
     9     4    33 1   
    10     5     6 1   
    11     5    34 1   
    12     5    35 1   
    13     6     7 1   
    14     7     8 ar  
    15     8     9 ar  
    16     8    36 1   
    17     9    10 ar  
    18     9    37 1   
    19    10    11 1   
    20    11    12 2   
    21    11    13 2   
    22    11    14 1   
    23    14    15 1   
    24    14    17 1   
    25    15    16 1   
    26    15    38 1   
    27    15    39 1   
    28    16    19 1   
    29    16    40 1   
    30    16    41 1   
    31    17    18 1   
    32    17    42 1   
    33    17    43 1   
    34    18    19 1   
    35    18    44 1   
    36    18    45 1   
    37    19    20 1   
    38    20    21 2   
    39    20    22 2   
    40    20    23 1   
    41    23    24 ar  
    42    23    29 ar  
    43    24    25 1   
    44    24    26 ar  
    45    26    27 ar  
    46    26    46 1   
    47    27    28 ar  
    48    27    47 1   
    49    28    29 ar  
    50    28    48 1   
    51    29    30 1   
@<TRIPOS>SUBSTRUCTURE
     1 DYY         1 TEMP              0 ****  ****    0 ROOT
