@<TRIPOS>MOLECULE
DYY
   48    51     1     0     0
SMALL
No Charge or Current Charge


@<TRIPOS>ATOM
      1 CAY         -2.6460     0.2690     0.6760 ca         1 DYY      -0.012000
      2 CAZ         -3.1530    -1.0310     0.5250 ca         1 DYY       0.030100
      3 OBA         -3.6140    -1.7140     1.6340 os         1 DYY      -0.324100
      4 CBB         -4.4300    -2.8840     1.4040 c6         1 DYY       0.116600
      5 CAO         -3.8290    -3.7260     0.2580 c6         1 DYY       0.115600
      6 OAN         -3.6770    -2.9120    -0.9260 os         1 DYY      -0.327100
      7 CAM         -3.1970    -1.6270    -0.7600 ca         1 DYY       0.112100
      8 CAL         -2.7490    -0.9120    -1.8810 ca         1 DYY      -0.136000
      9 CAK         -2.2470     0.3930    -1.7310 ca         1 DYY      -0.012000
     10 CAX         -2.1950     0.9880    -0.4530 ca         1 DYY      -0.316500
     11 SAW         -1.6180     2.6850    -0.2670 sy         1 DYY       1.145600
     12 OBD         -1.7180     3.3850    -1.5530 o          1 DYY      -0.526500
     13 OAJ         -2.1960     3.2710     0.9480 o          1 DYY      -0.526500
     14 NAV          0.0480     2.5030     0.0450 n3         1 DYY      -0.689500
     15 CAU          0.8570     1.9410    -1.0740 c6         1 DYY       0.151800
     16 CAT          2.3870     2.0450    -0.7870 c6         1 DYY       0.206800
     17 CAI          0.3940     1.8200     1.3240 c6         1 DYY       0.151800
     18 CAH          1.9170     1.9230     1.6400 c6         1 DYY       0.206800
     19 NAG          2.7850     1.4460     0.5210 n3         1 DYY      -0.744500
     20 SAF          3.3580    -0.1610     0.5420 sy         1 DYY       1.184600
     21 OAS          4.4540    -0.1940    -0.4310 o          1 DYY      -0.518000
     22 OAB          3.6410    -0.4630     1.9490 o          1 DYY      -0.518000
     23 CAE          1.9730    -1.1440    -0.0300 ca         1 DYY      -0.390500
     24 CAD          1.0490    -1.6880     0.8840 ca         1 DYY       0.291500
     25 FAA          1.1210    -1.4280     2.2070 f          1 DYY      -0.146500
     26 CAC          0.0090    -2.5160     0.4390 ca         1 DYY      -0.197500
     27 CAP         -0.1250    -2.8180    -0.9230 ca         1 DYY      -0.005000
     28 CAQ          0.7800    -2.2690    -1.8400 ca         1 DYY      -0.197500
     29 CAR          1.8240    -1.4430    -1.3990 ca         1 DYY       0.291500
     30 FBC          2.6570    -0.9350    -2.3320 f          1 DYY      -0.146500
     31 HAY         -2.6250     0.7180     1.6680 ha         1 DYY       0.152000
     32 HBB         -4.4920    -3.4730     2.3290 h1         1 DYY       0.076200
     33 HBBA        -5.4450    -2.5630     1.1290 h1         1 DYY       0.076200
     34 HAO         -2.8430    -4.1060     0.5610 h1         1 DYY       0.070700
     35 HAOA        -4.4730    -4.5860     0.0290 h1         1 DYY       0.070700
     36 HAL         -2.7880    -1.3700    -2.8650 ha         1 DYY       0.134000
     37 HAK         -1.9100     0.9380    -2.6120 ha         1 DYY       0.140000
     38 HAU          0.5840     0.8920    -1.2510 h1         1 DYY       0.063950
     39 HAUA         0.6550     2.4820    -2.0090 h1         1 DYY       0.063950
     40 HAT          2.9510     1.6090    -1.6250 h1         1 DYY       0.085450
     41 HATA         2.6390     3.1150    -0.7800 h1         1 DYY       0.085450
     42 HAI         -0.1520     2.2710     2.1650 h1         1 DYY       0.063950
     43 HAIA         0.0990     0.7650     1.2840 h1         1 DYY       0.063950
     44 HAH          2.1330     2.9840     1.8290 h1         1 DYY       0.085450
     45 HAHA         2.1300     1.4010     2.5840 h1         1 DYY       0.085450
     46 HAC         -0.6940    -2.9250     1.1580 ha         1 DYY       0.142500
     47 HAP         -0.9280    -3.4670    -1.2670 ha         1 DYY       0.128000
     48 HAQ          0.6780    -2.4880    -2.8990 ha         1 DYY       0.142500
@<TRIPOS>BOND
     1     1     2 ar  
     2     1    10 ar  
     3     1    31 1   
     4     2     3 1   
     5     2     7 ar  
     6     3     4 1   
     7     4     5 1   
     8     4    32 1   
     9     4    33 1   
    10     5     6 1   
    11     5    34 1   
    12     5    35 1   
    13     6     7 1   
    14     7     8 ar  
    15     8     9 ar  
    16     8    36 1   
    17     9    10 ar  
    18     9    37 1   
    19    10    11 1   
    20    11    12 2   
    21    11    13 2   
    22    11    14 1   
    23    14    15 1   
    24    14    17 1   
    25    15    16 1   
    26    15    38 1   
    27    15    39 1   
    28    16    19 1   
    29    16    40 1   
    30    16    41 1   
    31    17    18 1   
    32    17    42 1   
    33    17    43 1   
    34    18    19 1   
    35    18    44 1   
    36    18    45 1   
    37    19    20 1   
    38    20    21 2   
    39    20    22 2   
    40    20    23 1   
    41    23    24 ar  
    42    23    29 ar  
    43    24    25 1   
    44    24    26 ar  
    45    26    27 ar  
    46    26    46 1   
    47    27    28 ar  
    48    27    47 1   
    49    28    29 ar  
    50    28    48 1   
    51    29    30 1   
@<TRIPOS>SUBSTRUCTURE
     1 DYY         1 TEMP              0 ****  ****    0 ROOT
