@<TRIPOS>MOLECULE
DYZ
   34    36     1     0     0
SMALL
No Charge or Current Charge


@<TRIPOS>ATOM
      1 C4           0.7640    -0.1650    -0.7810 cc         1 DYZ       0.437900
      2 C5           1.9300     0.1140    -0.1570 cd         1 DYZ      -0.352600
      3 C6           2.1370     1.3770     0.5520 c          1 DYZ       0.639600
      4 C8           1.9860    -1.8900    -1.1260 cd         1 DYZ       0.446400
      5 N1           1.0490     2.1880     0.4910 ns         1 DYZ      -0.471500
      6 N3          -0.2880     0.7260    -0.7800 n          1 DYZ      -0.360300
      7 CAN          4.1580    -1.7240     1.5670 c3         1 DYZ      -0.113100
      8 N7           2.7360    -0.9960    -0.3670 na         1 DYZ      -0.112500
      9 N9           0.7820    -1.3850    -1.3830 nc         1 DYZ      -0.710000
     10 O6           3.1580     1.6960     1.1370 o          1 DYZ      -0.540000
     11 C2          -0.1460     1.9590    -0.1220 c          1 DYZ       0.627000
     12 O2          -1.0250     2.8040    -0.0880 o          1 DYZ      -0.555000
     13 CAK         -1.5750     0.4080    -1.4390 c3         1 DYZ       0.165300
     14 CAL         -2.6120    -0.1720    -0.4810 ca         1 DYZ      -0.121300
     15 CAP         -3.6060     0.6550     0.0800 ca         1 DYZ      -0.083500
     16 CAQ         -4.5580     0.1190     0.9650 ca         1 DYZ      -0.119500
     17 CAR         -4.5230    -1.2470     1.2950 ca         1 DYZ      -0.099000
     18 CAS         -3.5340    -2.0760     0.7390 ca         1 DYZ      -0.119500
     19 CAT         -2.5820    -1.5410    -0.1460 ca         1 DYZ      -0.083500
     20 H1           2.3730    -2.8520    -1.4390 h5         1 DYZ       0.062100
     21 H2           1.1380     3.0750     0.9610 hn         1 DYZ       0.344500
     22 H3           5.1970    -1.8670     1.8860 hc         1 DYZ       0.054700
     23 H4           3.6840    -1.0080     2.2490 hc         1 DYZ       0.054700
     24 H5           3.6350    -2.6840     1.6530 hc         1 DYZ       0.054700
     25 H6           4.6600    -0.2610     0.0470 h1         1 DYZ       0.068200
     26 H7           4.6090    -1.9300    -0.5420 h1         1 DYZ       0.068200
     27 H8          -1.9780     1.3150    -1.9090 h1         1 DYZ       0.077200
     28 H9          -1.4040    -0.3060    -2.2550 h1         1 DYZ       0.077200
     29 H10         -3.6410     1.7140    -0.1670 ha         1 DYZ       0.124000
     30 H11         -5.3220     0.7620     1.3950 ha         1 DYZ       0.112500
     31 H12         -5.2590    -1.6610     1.9800 ha         1 DYZ       0.111000
     32 H13         -3.5050    -3.1330     0.9930 ha         1 DYZ       0.112500
     33 H14         -1.8200    -2.1910    -0.5710 ha         1 DYZ       0.124000
     34 CAM          4.1100    -1.2070     0.1170 c3         1 DYZ       0.077600
@<TRIPOS>BOND
     1     1     2 2   
     2     1     6 1   
     3     1     9 1   
     4     2     3 1   
     5     2     8 1   
     6     3     5 1   
     7     3    10 2   
     8     4     8 1   
     9     4     9 2   
    10     4    20 1   
    11     5    11 1   
    12     5    21 1   
    13     6    11 1   
    14     6    13 1   
    15     7    22 1   
    16     7    23 1   
    17     7    24 1   
    18     7    34 1   
    19     8    34 1   
    20    11    12 2   
    21    13    14 1   
    22    13    27 1   
    23    13    28 1   
    24    14    15 ar  
    25    14    19 ar  
    26    15    16 ar  
    27    15    29 1   
    28    16    17 ar  
    29    16    30 1   
    30    17    18 ar  
    31    17    31 1   
    32    18    19 ar  
    33    18    32 1   
    34    19    33 1   
    35    25    34 1   
    36    26    34 1   
@<TRIPOS>SUBSTRUCTURE
     1 DYZ         1 TEMP              0 ****  ****    0 ROOT
