@<TRIPOS>MOLECULE
DYZ
   34    36     1     0     0
SMALL
bcc


@<TRIPOS>ATOM
      1 C4           0.7430    -0.1470    -0.7810 cc         1 DYZ       0.503200
      2 C5           1.9330     0.1030    -0.1400 cd         1 DYZ      -0.367200
      3 C6           2.1690     1.3100     0.5810 c          1 DYZ       0.782100
      4 C8           1.9720    -1.8100    -1.1540 cd         1 DYZ       0.446400
      5 N1           1.0420     2.1220     0.5440 ns         1 DYZ      -0.605500
      6 N3          -0.3030     0.7380    -0.7700 n          1 DYZ      -0.427300
      7 CAN          4.0660    -1.6660     1.5540 c3         1 DYZ      -0.113100
      8 N7           2.7190    -0.9940    -0.4050 na         1 DYZ      -0.133900
      9 N9           0.7650    -1.3330    -1.4090 nc         1 DYZ      -0.710000
     10 O6           3.1800     1.6510     1.1680 o          1 DYZ      -0.615500
     11 C2          -0.1750     1.9150    -0.0770 c          1 DYZ       0.836500
     12 O2          -1.0640     2.7400    -0.0100 o          1 DYZ      -0.630500
     13 CAK         -1.5670     0.4230    -1.4310 c3         1 DYZ       0.165300
     14 CAL         -2.5820    -0.1600    -0.4830 ca         1 DYZ      -0.121300
     15 CAP         -3.6190     0.6230     0.0160 ca         1 DYZ      -0.101500
     16 CAQ         -4.5480     0.0860     0.8970 ca         1 DYZ      -0.137500
     17 CAR         -4.4470    -1.2410     1.2930 ca         1 DYZ      -0.117000
     18 CAS         -3.4160    -2.0300     0.7970 ca         1 DYZ      -0.137500
     19 CAT         -2.4920    -1.4930    -0.0870 ca         1 DYZ      -0.101500
     20 H1           2.3430    -2.7610    -1.5040 h5         1 DYZ       0.062100
     21 H2           1.1140     3.0030     1.0380 hn         1 DYZ       0.344500
     22 H3           5.0850    -1.8970     1.8620 hc         1 DYZ       0.054700
     23 H4           3.6990    -0.8600     2.1880 hc         1 DYZ       0.054700
     24 H5           3.4520    -2.5500     1.7250 hc         1 DYZ       0.054700
     25 H6           4.6760    -0.3870    -0.0790 h1         1 DYZ       0.068200
     26 H7           4.4630    -2.0690    -0.5290 h1         1 DYZ       0.068200
     27 H8          -1.9450     1.3310    -1.8960 h1         1 DYZ       0.077200
     28 H9          -1.3390    -0.2790    -2.2310 h1         1 DYZ       0.077200
     29 H10         -3.7040     1.6580    -0.2890 ha         1 DYZ       0.142000
     30 H11         -5.3510     0.7050     1.2770 ha         1 DYZ       0.130500
     31 H12         -5.1700    -1.6610     1.9800 ha         1 DYZ       0.129000
     32 H13         -3.3340    -3.0670     1.0960 ha         1 DYZ       0.130500
     33 H14         -1.6980    -2.1170    -0.4800 ha         1 DYZ       0.142000
     34 CAM          4.0600    -1.2690     0.0900 c3         1 DYZ       0.048300
@<TRIPOS>BOND
     1     1     2 2   
     2     1     6 1   
     3     1     9 1   
     4     2     3 1   
     5     2     8 1   
     6     3     5 1   
     7     3    10 2   
     8     4     8 1   
     9     4     9 2   
    10     4    20 1   
    11     5    11 1   
    12     5    21 1   
    13     6    11 1   
    14     6    13 1   
    15     7    22 1   
    16     7    23 1   
    17     7    24 1   
    18     7    34 1   
    19     8    34 1   
    20    11    12 2   
    21    13    14 1   
    22    13    27 1   
    23    13    28 1   
    24    14    15 ar  
    25    14    19 ar  
    26    15    16 ar  
    27    15    29 1   
    28    16    17 ar  
    29    16    30 1   
    30    17    18 ar  
    31    17    31 1   
    32    18    19 ar  
    33    18    32 1   
    34    19    33 1   
    35    25    34 1   
    36    26    34 1   
@<TRIPOS>SUBSTRUCTURE
     1 DYZ         1 TEMP              0 ****  ****    0 ROOT
