@<TRIPOS>MOLECULE
DZ0
   51    54     1     0     0
SMALL
abcg2


@<TRIPOS>ATOM
      1 OAC          2.7510    -2.9380     0.5810 o          1 DZ0      -0.525100
      2 CAU          2.8740    -1.7560     0.3140 c          1 DZ0       0.595900
      3 CAZ          4.1180    -0.9860     0.2790 ca         1 DZ0      -0.227600
      4 CAK          5.4180    -1.4040     0.5330 ca         1 DZ0       0.004000
      5 CAY          6.4540    -0.4940     0.4360 ca         1 DZ0      -0.223000
      6 CAX          6.1840     0.8390     0.0830 ca         1 DZ0       0.175100
      7 OAR          7.1270     1.7800    -0.0330 os         1 DZ0      -0.341100
      8 CAA          8.4800     1.4420     0.2140 c3         1 DZ0       0.148900
      9 CAJ          4.8730     1.2570    -0.1700 ca         1 DZ0      -0.157000
     10 CAW          3.8510     0.3380    -0.0690 ca         1 DZ0      -0.011300
     11 CAP          2.3810     0.5570    -0.2930 c5         1 DZ0       0.005100
     12 CAT          1.7870    -0.8060    -0.0430 ce         1 DZ0      -0.219400
     13 CAD          0.5050    -1.1670    -0.1140 c2         1 DZ0      -0.125200
     14 CBA         -0.6330    -0.2700    -0.4610 c6         1 DZ0      -0.043500
     15 CAM         -1.3370    -0.7380    -1.7380 c6         1 DZ0      -0.068900
     16 CAO         -2.5510     0.1290    -2.0340 c6         1 DZ0       0.167800
     17 CAL         -1.6570    -0.2200     0.6770 c6         1 DZ0      -0.068900
     18 CAN         -2.8610     0.6230     0.2890 c6         1 DZ0       0.167800
     19 NBB         -3.4850     0.1240    -0.9230 n3         1 DZ0      -0.721600
     20 CAQ         -4.6990     0.8440    -1.2410 c3         1 DZ0       0.216100
     21 CAV         -5.8040     0.5980    -0.2460 ca         1 DZ0      -0.088300
     22 CAH         -6.6200     1.6410     0.1780 ca         1 DZ0      -0.099000
     23 CAF         -7.6690     1.4130     1.0610 ca         1 DZ0      -0.114000
     24 CAE         -7.9090     0.1330     1.5400 ca         1 DZ0      -0.109000
     25 CAG         -7.0940    -0.9150     1.1280 ca         1 DZ0      -0.114000
     26 CAI         -6.0520    -0.6850     0.2410 ca         1 DZ0      -0.099000
     27 H1           5.6270    -2.4310     0.8040 ha         1 DZ0       0.129000
     28 H2           7.4640    -0.8240     0.6340 ha         1 DZ0       0.121000
     29 H3           9.0560     2.3490     0.0520 h1         1 DZ0       0.044033
     30 H4           8.6330     1.1040     1.2420 h1         1 DZ0       0.044033
     31 H5           8.8380     0.6700    -0.4710 h1         1 DZ0       0.044033
     32 H6           4.6810     2.2900    -0.4390 ha         1 DZ0       0.132000
     33 H7           1.9850     1.3150     0.3870 hc         1 DZ0       0.067700
     34 H8           0.2540    -2.2040     0.1000 ha         1 DZ0       0.193000
     35 H10         -0.2600     0.7460    -0.6310 hc         1 DZ0       0.049700
     36 H11         -0.6510    -0.6990    -2.5860 hc         1 DZ0       0.051950
     37 H12         -1.6540    -1.7790    -1.6250 hc         1 DZ0       0.051950
     38 H13         -2.2140     1.1520    -2.2770 h1         1 DZ0       0.033450
     39 H14         -3.0620    -0.2520    -2.9210 h1         1 DZ0       0.033450
     40 H15         -1.9900    -1.2350     0.9160 hc         1 DZ0       0.051950
     41 H16         -1.2020     0.1920     1.5800 hc         1 DZ0       0.051950
     42 H17         -3.5910     0.6010     1.1010 h1         1 DZ0       0.033450
     43 H18         -2.5480     1.6760     0.1720 h1         1 DZ0       0.033450
     44 H20         -4.5290     1.9300    -1.3330 h1         1 DZ0       0.037200
     45 H21         -5.0390     0.5090    -2.2270 h1         1 DZ0       0.037200
     46 H22         -6.4320     2.6460    -0.1820 ha         1 DZ0       0.117500
     47 H23         -8.2940     2.2380     1.3790 ha         1 DZ0       0.111500
     48 H24         -8.7220    -0.0460     2.2310 ha         1 DZ0       0.111000
     49 H25         -7.2720    -1.9170     1.4990 ha         1 DZ0       0.111500
     50 H26         -5.4140    -1.5020    -0.0700 ha         1 DZ0       0.117500
     51 H27          2.1830     0.9140    -1.3080 hc         1 DZ0       0.067700
@<TRIPOS>BOND
     1     1     2 2   
     2     2     3 1   
     3     2    12 1   
     4     3     4 ar  
     5     3    10 ar  
     6     4     5 ar  
     7     4    27 1   
     8     5     6 ar  
     9     5    28 1   
    10     6     7 1   
    11     6     9 ar  
    12     7     8 1   
    13     8    29 1   
    14     8    30 1   
    15     8    31 1   
    16     9    10 ar  
    17     9    32 1   
    18    10    11 1   
    19    11    12 1   
    20    11    33 1   
    21    11    51 1   
    22    12    13 2   
    23    13    14 1   
    24    13    34 1   
    25    14    15 1   
    26    14    17 1   
    27    14    35 1   
    28    15    16 1   
    29    15    36 1   
    30    15    37 1   
    31    16    19 1   
    32    16    38 1   
    33    16    39 1   
    34    17    18 1   
    35    17    40 1   
    36    17    41 1   
    37    18    19 1   
    38    18    42 1   
    39    18    43 1   
    40    19    20 1   
    41    20    21 1   
    42    20    44 1   
    43    20    45 1   
    44    21    22 ar  
    45    21    26 ar  
    46    22    23 ar  
    47    22    46 1   
    48    23    24 ar  
    49    23    47 1   
    50    24    25 ar  
    51    24    48 1   
    52    25    26 ar  
    53    25    49 1   
    54    26    50 1   
@<TRIPOS>SUBSTRUCTURE
     1 DZ0         1 TEMP              0 ****  ****    0 ROOT
