@<TRIPOS>MOLECULE
DZ0
   51    54     1     0     0
SMALL
No Charge or Current Charge


@<TRIPOS>ATOM
      1 OAC          2.8920    -2.6850     1.3850 o          1 DZ0      -0.525100
      2 CAU          2.9620    -1.5840     0.8540 c          1 DZ0       0.595900
      3 CAZ          4.2230    -0.8940     0.5030 ca         1 DZ0      -0.227600
      4 CAK          5.5420    -1.3290     0.6900 ca         1 DZ0       0.004000
      5 CAY          6.5870    -0.4830     0.2670 ca         1 DZ0      -0.223000
      6 CAX          6.2970     0.7710    -0.3310 ca         1 DZ0       0.175100
      7 OAR          7.2850     1.6320    -0.7610 os         1 DZ0      -0.341100
      8 CAA          8.6840     1.3200    -0.6340 c3         1 DZ0       0.148900
      9 CAJ          4.9580     1.1750    -0.5030 ca         1 DZ0      -0.157000
     10 CAW          3.9300     0.3230    -0.0770 ca         1 DZ0      -0.011300
     11 CAP          2.4350     0.5440    -0.1570 c5         1 DZ0       0.005100
     12 CAT          1.7940    -0.7240     0.4540 ce         1 DZ0      -0.219400
     13 CAD          0.4930    -1.0630     0.6160 c2         1 DZ0      -0.125200
     14 CBA         -0.6680    -0.1750     0.1870 c6         1 DZ0      -0.043500
     15 CAM         -1.0630    -0.4470    -1.2850 c6         1 DZ0      -0.068900
     16 CAO         -2.2810     0.4130    -1.7050 c6         1 DZ0       0.167800
     17 CAL         -1.9060    -0.3780     1.0960 c6         1 DZ0      -0.068900
     18 CAN         -3.1010     0.4810     0.6140 c6         1 DZ0       0.167800
     19 NBB         -3.4480     0.1920    -0.8070 n3         1 DZ0      -0.721600
     20 CAQ         -4.6500     0.9260    -1.2690 c3         1 DZ0       0.216100
     21 CAV         -5.9160     0.5780    -0.4890 ca         1 DZ0      -0.088300
     22 CAH         -6.5300     1.5340     0.3450 ca         1 DZ0      -0.099000
     23 CAF         -7.6950     1.2080     1.0610 ca         1 DZ0      -0.114000
     24 CAE         -8.2540    -0.0760     0.9480 ca         1 DZ0      -0.109000
     25 CAG         -7.6480    -1.0340     0.1190 ca         1 DZ0      -0.114000
     26 CAI         -6.4820    -0.7080    -0.5970 ca         1 DZ0      -0.099000
     27 H1           5.7540    -2.2940     1.1500 ha         1 DZ0       0.129000
     28 H2           7.6110    -0.8160     0.4100 ha         1 DZ0       0.121000
     29 H3           9.2940     2.1370    -1.0360 h1         1 DZ0       0.044033
     30 H4           8.9580     1.1780     0.4200 h1         1 DZ0       0.044033
     31 H5           8.9310     0.4060    -1.1890 h1         1 DZ0       0.044033
     32 H6           4.7280     2.1330    -0.9590 ha         1 DZ0       0.132000
     33 H7           2.1350     1.4400     0.3980 hc         1 DZ0       0.067700
     34 H8           0.2280    -2.0220     1.0670 ha         1 DZ0       0.193000
     35 H10         -0.3580     0.8760     0.2740 hc         1 DZ0       0.049700
     36 H11         -0.2160    -0.2330    -1.9490 hc         1 DZ0       0.051950
     37 H12         -1.3050    -1.5100    -1.4180 hc         1 DZ0       0.051950
     38 H13         -1.9900     1.4740    -1.6960 h1         1 DZ0       0.033450
     39 H14         -2.5460     0.1600    -2.7420 h1         1 DZ0       0.033450
     40 H15         -2.2020    -1.4360     1.1020 hc         1 DZ0       0.051950
     41 H16         -1.6580    -0.1140     2.1330 hc         1 DZ0       0.051950
     42 H17         -3.9580     0.2750     1.2720 h1         1 DZ0       0.033450
     43 H18         -2.8500     1.5460     0.7350 h1         1 DZ0       0.033450
     44 H20         -4.4740     2.0090    -1.2070 h1         1 DZ0       0.037200
     45 H21         -4.8380     0.6980    -2.3270 h1         1 DZ0       0.037200
     46 H22         -6.1020     2.5300     0.4400 ha         1 DZ0       0.117500
     47 H23         -8.1630     1.9510     1.7040 ha         1 DZ0       0.111500
     48 H24         -9.1560    -0.3280     1.5030 ha         1 DZ0       0.111000
     49 H25         -8.0790    -2.0290     0.0320 ha         1 DZ0       0.111500
     50 H26         -6.0140    -1.4550    -1.2340 ha         1 DZ0       0.117500
     51 H27          2.1080     0.6890    -1.1930 hc         1 DZ0       0.067700
@<TRIPOS>BOND
     1     1     2 2   
     2     2     3 1   
     3     2    12 1   
     4     3     4 ar  
     5     3    10 ar  
     6     4     5 ar  
     7     4    27 1   
     8     5     6 ar  
     9     5    28 1   
    10     6     7 1   
    11     6     9 ar  
    12     7     8 1   
    13     8    29 1   
    14     8    30 1   
    15     8    31 1   
    16     9    10 ar  
    17     9    32 1   
    18    10    11 1   
    19    11    12 1   
    20    11    33 1   
    21    11    51 1   
    22    12    13 2   
    23    13    14 1   
    24    13    34 1   
    25    14    15 1   
    26    14    17 1   
    27    14    35 1   
    28    15    16 1   
    29    15    36 1   
    30    15    37 1   
    31    16    19 1   
    32    16    38 1   
    33    16    39 1   
    34    17    18 1   
    35    17    40 1   
    36    17    41 1   
    37    18    19 1   
    38    18    42 1   
    39    18    43 1   
    40    19    20 1   
    41    20    21 1   
    42    20    44 1   
    43    20    45 1   
    44    21    22 ar  
    45    21    26 ar  
    46    22    23 ar  
    47    22    46 1   
    48    23    24 ar  
    49    23    47 1   
    50    24    25 ar  
    51    24    48 1   
    52    25    26 ar  
    53    25    49 1   
    54    26    50 1   
@<TRIPOS>SUBSTRUCTURE
     1 DZ0         1 TEMP              0 ****  ****    0 ROOT
