@<TRIPOS>MOLECULE
DZ1
   33    34     1     0     0
SMALL
abcg2


@<TRIPOS>ATOM
      1 CAA          4.0940     1.4850     2.0120 c3         1 DZ1      -0.058300
      2 CAN          4.6640     0.4680     1.0650 ca         1 DZ1      -0.035300
      3 CAH          5.9600    -0.0070     1.2380 ca         1 DZ1      -0.119000
      4 CAG          6.4980    -0.9340     0.3580 ca         1 DZ1      -0.085000
      5 CAI          5.7450    -1.4050    -0.7060 ca         1 DZ1      -0.119000
      6 CAO          4.4410    -0.9600    -0.9050 ca         1 DZ1      -0.035300
      7 CAB          3.6270    -1.4890    -2.0530 c3         1 DZ1      -0.058300
      8 CAT          3.9160    -0.0250    -0.0080 ca         1 DZ1      -0.161600
      9 CAM          2.5340     0.5120    -0.2370 c          1 DZ1       0.622700
     10 OAC          2.3390     1.5890    -0.7710 o          1 DZ1      -0.569100
     11 NAL          1.5550    -0.3140     0.2070 ns         1 DZ1      -0.143000
     12 CAR          0.1670    -0.1630     0.1240 ca         1 DZ1      -0.054000
     13 CAJ         -0.6090    -1.2360     0.5520 ca         1 DZ1      -0.076500
     14 CAP         -1.9880    -1.1660     0.5070 ca         1 DZ1      -0.067900
     15 BRAE        -2.9900    -2.6520     1.0940 br         1 DZ1      -0.077100
     16 CAS         -2.6580    -0.0330     0.0390 ca         1 DZ1       0.172100
     17 OAD         -3.9830     0.1060    -0.0350 oh         1 DZ1      -0.507100
     18 CAQ         -1.8530     1.0260    -0.3810 ca         1 DZ1      -0.067900
     19 BRAF        -2.6940     2.5830    -1.0210 br         1 DZ1      -0.077100
     20 CAK         -0.4690     0.9830    -0.3470 ca         1 DZ1      -0.076500
     21 HAA          3.9370     2.4450     1.5190 hc         1 DZ1       0.050533
     22 HAAA         3.1310     1.1700     2.4170 hc         1 DZ1       0.050533
     23 HAAB         4.7650     1.6510     2.8530 hc         1 DZ1       0.050533
     24 HAH          6.5530     0.3590     2.0660 ha         1 DZ1       0.117000
     25 HAG          7.5100    -1.2900     0.5030 ha         1 DZ1       0.117000
     26 HAI          6.1730    -2.1240    -1.3930 ha         1 DZ1       0.117000
     27 HAB          2.8460    -2.1700    -1.7110 hc         1 DZ1       0.050533
     28 HABA         3.1360    -0.6910    -2.6110 hc         1 DZ1       0.050533
     29 HABB         4.2540    -2.0400    -2.7510 hc         1 DZ1       0.050533
     30 HNAL         1.8680    -1.1690     0.6430 hn         1 DZ1       0.158000
     31 HAJ         -0.1280    -2.1320     0.9230 ha         1 DZ1       0.149000
     32 HOAD        -4.4540    -0.6690     0.2950 ho         1 DZ1       0.483000
     33 HAK          0.1000     1.8340    -0.6830 ha         1 DZ1       0.149000
@<TRIPOS>BOND
     1     1     2 1   
     2     1    21 1   
     3     1    22 1   
     4     1    23 1   
     5     2     3 ar  
     6     2     8 ar  
     7     3     4 ar  
     8     3    24 1   
     9     4     5 ar  
    10     4    25 1   
    11     5     6 ar  
    12     5    26 1   
    13     6     7 1   
    14     6     8 ar  
    15     7    27 1   
    16     7    28 1   
    17     7    29 1   
    18     8     9 1   
    19     9    10 2   
    20     9    11 1   
    21    11    12 1   
    22    11    30 1   
    23    12    13 ar  
    24    12    20 ar  
    25    13    14 ar  
    26    13    31 1   
    27    14    15 1   
    28    14    16 ar  
    29    16    17 1   
    30    16    18 ar  
    31    17    32 1   
    32    18    19 1   
    33    18    20 ar  
    34    20    33 1   
@<TRIPOS>SUBSTRUCTURE
     1 DZ1         1 TEMP              0 ****  ****    0 ROOT
