@<TRIPOS>MOLECULE
DZ1
   33    34     1     0     0
SMALL
No Charge or Current Charge


@<TRIPOS>ATOM
      1 CAA          4.5050     1.8840     1.8290 c3         1 DZ1      -0.058300
      2 CAN          4.8660     0.6690     0.9780 ca         1 DZ1      -0.035300
      3 CAH          6.1590     0.1280     1.1070 ca         1 DZ1      -0.119000
      4 CAG          6.5350    -1.0070     0.3780 ca         1 DZ1      -0.085000
      5 CAI          5.6210    -1.6080    -0.4950 ca         1 DZ1      -0.119000
      6 CAO          4.3220    -1.0870    -0.6510 ca         1 DZ1      -0.035300
      7 CAB          3.4090    -1.7590    -1.6760 c3         1 DZ1      -0.058300
      8 CAT          3.9270     0.0590     0.0990 ca         1 DZ1      -0.161600
      9 CAM          2.5320     0.6380    -0.0300 c          1 DZ1       0.622700
     10 OAC          2.3480     1.8270    -0.2700 o          1 DZ1      -0.569100
     11 NAL          1.5030    -0.2870     0.1010 ns         1 DZ1      -0.143000
     12 CAR          0.0860    -0.1670     0.0390 ca         1 DZ1      -0.054000
     13 CAJ         -0.6710    -1.3540     0.0760 ca         1 DZ1      -0.076500
     14 CAP         -2.0750    -1.3130     0.0200 ca         1 DZ1      -0.067900
     15 BrAE        -3.0550    -2.9630     0.0700 br         1 DZ1      -0.077100
     16 CAS         -2.7440    -0.0780    -0.0700 ca         1 DZ1       0.172100
     17 OAD         -4.1090    -0.0360    -0.1240 oh         1 DZ1      -0.507100
     18 CAQ         -1.9940     1.1140    -0.1030 ca         1 DZ1      -0.067900
     19 BrAF        -2.8640     2.8220    -0.2190 br         1 DZ1      -0.077100
     20 CAK         -0.5890     1.0720    -0.0470 ca         1 DZ1      -0.076500
     21 HAA          4.4440     2.7910     1.2160 hc         1 DZ1       0.050533
     22 HAAA         3.5410     1.7480     2.3350 hc         1 DZ1       0.050533
     23 HAAB         5.2520     2.0700     2.6110 hc         1 DZ1       0.050533
     24 HAH          6.8790     0.5860     1.7820 ha         1 DZ1       0.117000
     25 HAG          7.5360    -1.4170     0.4870 ha         1 DZ1       0.117000
     26 HAI          5.9310    -2.4820    -1.0650 ha         1 DZ1       0.117000
     27 HAB          2.7090    -2.4510    -1.1930 hc         1 DZ1       0.050533
     28 HABA         2.8300    -1.0250    -2.2490 hc         1 DZ1       0.050533
     29 HABB         3.9850    -2.3410    -2.4060 hc         1 DZ1       0.050533
     30 HNAL         1.8270    -1.2280     0.2810 hn         1 DZ1       0.158000
     31 HAJ         -0.1690    -2.3170     0.1460 ha         1 DZ1       0.149000
     32 HOAD        -4.4410    -0.9590    -0.0890 ho         1 DZ1       0.483000
     33 HAK         -0.0470     2.0120    -0.0660 ha         1 DZ1       0.149000
@<TRIPOS>BOND
     1     1     2 1   
     2     1    21 1   
     3     1    22 1   
     4     1    23 1   
     5     2     3 ar  
     6     2     8 ar  
     7     3     4 ar  
     8     3    24 1   
     9     4     5 ar  
    10     4    25 1   
    11     5     6 ar  
    12     5    26 1   
    13     6     7 1   
    14     6     8 ar  
    15     7    27 1   
    16     7    28 1   
    17     7    29 1   
    18     8     9 1   
    19     9    10 2   
    20     9    11 1   
    21    11    12 1   
    22    11    30 1   
    23    12    13 ar  
    24    12    20 ar  
    25    13    14 ar  
    26    13    31 1   
    27    14    15 1   
    28    14    16 ar  
    29    16    17 1   
    30    16    18 ar  
    31    17    32 1   
    32    18    19 1   
    33    18    20 ar  
    34    20    33 1   
@<TRIPOS>SUBSTRUCTURE
     1 DZ1         1 TEMP              0 ****  ****    0 ROOT
