@<TRIPOS>MOLECULE
DZ2
   27    28     1     0     0
SMALL
bcc


@<TRIPOS>ATOM
      1 CAJ         -1.0940     0.8790    -0.5730 ca         1 DZ2      -0.087500
      2 CAQ         -2.4800     0.8280    -0.6120 ca         1 DZ2      -0.070400
      3 BRAE        -3.4040     2.2840    -1.3780 br         1 DZ2      -0.074100
      4 CAP         -3.2110    -0.2510    -0.1150 ca         1 DZ2       0.177100
      5 OAB         -4.5410    -0.3560    -0.1220 oh         1 DZ2      -0.468100
      6 CAR         -2.4690    -1.3030     0.4290 ca         1 DZ2      -0.070400
      7 BRAF        -3.3880    -2.7920     1.1130 br         1 DZ2      -0.074100
      8 CAK         -1.0900    -1.2750     0.4840 ca         1 DZ2      -0.087500
      9 CAS         -0.3870    -0.1810    -0.0170 ca         1 DZ2       0.031600
     10 NAL          1.0100    -0.2380     0.0540 ns         1 DZ2      -0.466100
     11 CAM          1.8950     0.7760    -0.0890 c          1 DZ2       0.690700
     12 OAA          1.6010     1.9340    -0.3100 o          1 DZ2      -0.550100
     13 CAT          3.3230     0.3350     0.0190 ca         1 DZ2      -0.145600
     14 CAI          3.7940    -0.6430    -0.8500 ca         1 DZ2      -0.095000
     15 CAN          5.1280    -1.0140    -0.8170 ca         1 DZ2       0.018400
     16 CLAC         5.7000    -2.2190    -1.9140 cl         1 DZ2      -0.089400
     17 CAG          6.0050    -0.4300     0.0820 ca         1 DZ2      -0.094000
     18 CAH          5.5370     0.5370     0.9570 ca         1 DZ2      -0.120000
     19 CAO          4.2070     0.9220     0.9190 ca         1 DZ2       0.065400
     20 CLAD         3.6560     2.1060     2.0490 cl         1 DZ2      -0.069400
     21 HAJ         -0.5820     1.7350    -0.9800 ha         1 DZ2       0.166000
     22 HOAB        -4.9700     0.4250    -0.4930 ho         1 DZ2       0.446000
     23 HAK         -0.5510    -2.1070     0.9190 ha         1 DZ2       0.166000
     24 HNAL         1.3890    -1.1300     0.3360 hn         1 DZ2       0.326500
     25 HAI          3.1220    -1.1010    -1.5640 ha         1 DZ2       0.157000
     26 HAG          7.0450    -0.7240     0.1120 ha         1 DZ2       0.156000
     27 HAH          6.2140     0.9870     1.6700 ha         1 DZ2       0.158000
@<TRIPOS>BOND
     1     1     2 ar  
     2     1     9 ar  
     3     1    21 1   
     4     2     3 1   
     5     2     4 ar  
     6     4     5 1   
     7     4     6 ar  
     8     5    22 1   
     9     6     7 1   
    10     6     8 ar  
    11     8     9 ar  
    12     8    23 1   
    13     9    10 1   
    14    10    11 1   
    15    10    24 1   
    16    11    12 2   
    17    11    13 1   
    18    13    14 ar  
    19    13    19 ar  
    20    14    15 ar  
    21    14    25 1   
    22    15    16 1   
    23    15    17 ar  
    24    17    18 ar  
    25    17    26 1   
    26    18    19 ar  
    27    18    27 1   
    28    19    20 1   
@<TRIPOS>SUBSTRUCTURE
     1 DZ2         1 TEMP              0 ****  ****    0 ROOT
