@<TRIPOS>MOLECULE
DZ2
   27    28     1     0     0
SMALL
No Charge or Current Charge


@<TRIPOS>ATOM
      1 CAJ         -1.2260     1.0070    -0.0780 ca         1 DZ2      -0.069500
      2 CAQ         -2.6290     0.9230    -0.1420 ca         1 DZ2      -0.070400
      3 BrAE        -3.6550     2.5460    -0.1420 br         1 DZ2      -0.074100
      4 CAP         -3.2650    -0.3320    -0.2010 ca         1 DZ2       0.177100
      5 OAB         -4.6280    -0.4110    -0.2620 oh         1 DZ2      -0.507100
      6 CAR         -2.4850    -1.5040    -0.1920 ca         1 DZ2      -0.070400
      7 BrAF        -3.3070    -3.2370    -0.2660 br         1 DZ2      -0.074100
      8 CAK         -1.0830    -1.4190    -0.1280 ca         1 DZ2      -0.069500
      9 CAS         -0.4390    -0.1670    -0.0760 ca         1 DZ2      -0.061000
     10 NAL          0.9850    -0.1600    -0.0090 ns         1 DZ2      -0.140000
     11 CAM          1.9260     0.8620    -0.0980 c          1 DZ2       0.623700
     12 OAA          1.6160     2.0260    -0.3200 o          1 DZ2      -0.550100
     13 CAT          3.3710     0.4110     0.0220 ca         1 DZ2      -0.145600
     14 CAI          3.7290    -0.9200    -0.3250 ca         1 DZ2      -0.077000
     15 CAN          5.0600    -1.3580    -0.2360 ca         1 DZ2       0.110000
     16 ClAC         5.4700    -3.0090    -0.6820 cl         1 DZ2      -0.181000
     17 CAG          6.0630    -0.4840     0.2000 ca         1 DZ2      -0.076000
     18 CAH          5.7310     0.8330     0.5510 ca         1 DZ2      -0.102000
     19 CAO          4.4020     1.2860     0.4650 ca         1 DZ2       0.157000
     20 ClAD         4.0990     2.9450     0.9920 cl         1 DZ2      -0.161000
     21 HAJ         -0.7740     1.9920    -0.0210 ha         1 DZ2       0.148000
     22 HOAB        -4.9840     0.5040    -0.2570 ho         1 DZ2       0.485000
     23 HAK         -0.4940    -2.3340    -0.1220 ha         1 DZ2       0.148000
     24 HNAL         1.3880    -1.0730     0.1560 hn         1 DZ2       0.160000
     25 HAI          2.9870    -1.6260    -0.6900 ha         1 DZ2       0.139000
     26 HAG          7.0930    -0.8270     0.2690 ha         1 DZ2       0.138000
     27 HAH          6.5080     1.5090     0.8990 ha         1 DZ2       0.140000
@<TRIPOS>BOND
     1     1     2 ar  
     2     1     9 ar  
     3     1    21 1   
     4     2     3 1   
     5     2     4 ar  
     6     4     5 1   
     7     4     6 ar  
     8     5    22 1   
     9     6     7 1   
    10     6     8 ar  
    11     8     9 ar  
    12     8    23 1   
    13     9    10 1   
    14    10    11 1   
    15    10    24 1   
    16    11    12 2   
    17    11    13 1   
    18    13    14 ar  
    19    13    19 ar  
    20    14    15 ar  
    21    14    25 1   
    22    15    16 1   
    23    15    17 ar  
    24    17    18 ar  
    25    17    26 1   
    26    18    19 ar  
    27    18    27 1   
    28    19    20 1   
@<TRIPOS>SUBSTRUCTURE
     1 DZ2         1 TEMP              0 ****  ****    0 ROOT
