@<TRIPOS>MOLECULE
DZ3
   34    35     1     0     0
SMALL
bcc


@<TRIPOS>ATOM
      1 CAA         -6.6790     1.5270    -1.3980 c3         1 DZ3      -0.042800
      2 CAN         -5.6810     0.6720    -0.6710 ca         1 DZ3      -0.147800
      3 CAJ         -4.3370     1.0070    -0.6460 ca         1 DZ3      -0.051500
      4 CAS         -6.0900    -0.4890    -0.0040 ca         1 DZ3       0.169100
      5 OAD         -7.3750    -0.8810     0.0220 oh         1 DZ3      -0.493100
      6 CAO         -5.1750    -1.3020     0.6740 ca         1 DZ3      -0.147800
      7 CAB         -5.6410    -2.5280     1.4000 c3         1 DZ3      -0.042800
      8 CAK         -3.8380    -0.9390     0.6600 ca         1 DZ3      -0.051500
      9 CAU         -3.3980     0.2070    -0.0000 ca         1 DZ3      -0.194600
     10 CAM         -1.9770     0.6380    -0.0200 c          1 DZ3       0.693700
     11 OAC         -1.6580     1.8030    -0.1940 o          1 DZ3      -0.581100
     12 NAL         -1.0650    -0.3590     0.1540 ns         1 DZ3      -0.473100
     13 CAR          0.3260    -0.2290     0.1660 ca         1 DZ3       0.033600
     14 CAH          0.9820     0.9120     0.6140 ca         1 DZ3      -0.083000
     15 CAP          2.3680     0.9490     0.6160 ca         1 DZ3      -0.071400
     16 BRAF         3.2210     2.5170     1.2310 br         1 DZ3      -0.078100
     17 CAT          3.1520    -0.1260     0.1940 ca         1 DZ3       0.176100
     18 OAE          4.4860    -0.1520     0.1710 oh         1 DZ3      -0.469100
     19 CAQ          2.4620    -1.2630    -0.2330 ca         1 DZ3      -0.071400
     20 BRAG         3.4550    -2.7540    -0.8050 br         1 DZ3      -0.078100
     21 CAI          1.0830    -1.3190    -0.2580 ca         1 DZ3      -0.083000
     22 HAA         -7.1790     0.9790    -2.2000 hc         1 DZ3       0.046033
     23 HAAA        -7.4540     1.9160    -0.7320 hc         1 DZ3       0.046033
     24 HAAB        -6.1900     2.3860    -1.8520 hc         1 DZ3       0.046033
     25 HAJ         -4.0140     1.9070    -1.1540 ha         1 DZ3       0.143000
     26 HOAD        -7.9430    -0.2660    -0.4570 ho         1 DZ3       0.433000
     27 HAB         -6.1250    -3.2360     0.7250 hc         1 DZ3       0.046033
     28 HABA        -4.8030    -3.0390     1.8710 hc         1 DZ3       0.046033
     29 HABB        -6.3650    -2.2870     2.1800 hc         1 DZ3       0.046033
     30 HAK         -3.1420    -1.5620     1.2110 ha         1 DZ3       0.143000
     31 HNAL        -1.4070    -1.3070     0.1030 hn         1 DZ3       0.322500
     32 HAH          0.4270     1.7640     0.9720 ha         1 DZ3       0.163000
     33 HOAE         4.8760     0.6720     0.4890 ho         1 DZ3       0.446000
     34 HAI          0.5840    -2.2130    -0.6090 ha         1 DZ3       0.163000
@<TRIPOS>BOND
     1     1     2 1   
     2     1    22 1   
     3     1    23 1   
     4     1    24 1   
     5     2     3 ar  
     6     2     4 ar  
     7     3     9 ar  
     8     3    25 1   
     9     4     5 1   
    10     4     6 ar  
    11     5    26 1   
    12     6     7 1   
    13     6     8 ar  
    14     7    27 1   
    15     7    28 1   
    16     7    29 1   
    17     8     9 ar  
    18     8    30 1   
    19     9    10 1   
    20    10    11 2   
    21    10    12 1   
    22    12    13 1   
    23    12    31 1   
    24    13    14 ar  
    25    13    21 ar  
    26    14    15 ar  
    27    14    32 1   
    28    15    16 1   
    29    15    17 ar  
    30    17    18 1   
    31    17    19 ar  
    32    18    33 1   
    33    19    20 1   
    34    19    21 ar  
    35    21    34 1   
@<TRIPOS>SUBSTRUCTURE
     1 DZ3         1 TEMP              0 ****  ****    0 ROOT
