@<TRIPOS>MOLECULE
DZ3
   34    35     1     0     0
SMALL
No Charge or Current Charge


@<TRIPOS>ATOM
      1 CAA         -6.9030     1.7920    -0.8270 c3         1 DZ3      -0.042800
      2 CAN         -5.8250     0.7780    -0.4420 ca         1 DZ3      -0.147800
      3 CAJ         -4.4710     1.1620    -0.4950 ca         1 DZ3      -0.033500
      4 CAS         -6.1580    -0.5310    -0.0350 ca         1 DZ3       0.169100
      5 OAD         -7.4680    -0.9200     0.0230 oh         1 DZ3      -0.532100
      6 CAO         -5.1450    -1.4460     0.3150 ca         1 DZ3      -0.147800
      7 CAB         -5.4930    -2.8660     0.7580 c3         1 DZ3      -0.042800
      8 CAK         -3.7950    -1.0490     0.2570 ca         1 DZ3      -0.033500
      9 CAU         -3.4400     0.2600    -0.1490 ca         1 DZ3      -0.194600
     10 CAM         -1.9940     0.7210    -0.2230 c          1 DZ3       0.626700
     11 OAC         -1.7130     1.8610    -0.5770 o          1 DZ3      -0.581100
     12 NAL         -1.0350    -0.2250     0.1250 ns         1 DZ3      -0.147000
     13 CAR          0.3880    -0.1720     0.2000 ca         1 DZ3      -0.059000
     14 CAH          1.1380     1.0130     0.0210 ca         1 DZ3      -0.065000
     15 CAP          2.5410     0.9870     0.1130 ca         1 DZ3      -0.071400
     16 BrAF         3.5170     2.6210    -0.1380 br         1 DZ3      -0.078100
     17 CAT          3.2150    -0.2190     0.3860 ca         1 DZ3       0.176100
     18 OAE          4.5790    -0.2420     0.4750 oh         1 DZ3      -0.508100
     19 CAQ          2.4710    -1.4010     0.5700 ca         1 DZ3      -0.071400
     20 BrAG         3.3450    -3.0680     0.9480 br         1 DZ3      -0.078100
     21 CAI          1.0690    -1.3740     0.4780 ca         1 DZ3      -0.065000
     22 HAA         -7.4960     1.4370    -1.6780 hc         1 DZ3       0.046033
     23 HAAA        -7.5850     1.9850     0.0100 hc         1 DZ3       0.046033
     24 HAAB        -6.4690     2.7570    -1.1170 hc         1 DZ3       0.046033
     25 HAJ         -4.2200     2.1730    -0.8100 ha         1 DZ3       0.125000
     26 HOAD        -8.0240    -0.1620    -0.2520 ho         1 DZ3       0.472000
     27 HAB         -6.0370    -3.4010    -0.0300 hc         1 DZ3       0.046033
     28 HABA        -4.5990    -3.4550     0.9960 hc         1 DZ3       0.046033
     29 HABB        -6.1260    -2.8540     1.6530 hc         1 DZ3       0.046033
     30 HAK         -3.0320    -1.7730     0.5330 ha         1 DZ3       0.125000
     31 HNAL        -1.4190    -1.1240     0.3770 hn         1 DZ3       0.156000
     32 HAH          0.6560     1.9630    -0.1830 ha         1 DZ3       0.145000
     33 HOAE         4.9060     0.6710     0.3190 ho         1 DZ3       0.485000
     34 HAI          0.5090    -2.2950     0.6230 ha         1 DZ3       0.145000
@<TRIPOS>BOND
     1     1     2 1   
     2     1    22 1   
     3     1    23 1   
     4     1    24 1   
     5     2     3 ar  
     6     2     4 ar  
     7     3     9 ar  
     8     3    25 1   
     9     4     5 1   
    10     4     6 ar  
    11     5    26 1   
    12     6     7 1   
    13     6     8 ar  
    14     7    27 1   
    15     7    28 1   
    16     7    29 1   
    17     8     9 ar  
    18     8    30 1   
    19     9    10 1   
    20    10    11 2   
    21    10    12 1   
    22    12    13 1   
    23    12    31 1   
    24    13    14 ar  
    25    13    21 ar  
    26    14    15 ar  
    27    14    32 1   
    28    15    16 1   
    29    15    17 ar  
    30    17    18 1   
    31    17    19 ar  
    32    18    33 1   
    33    19    20 1   
    34    19    21 ar  
    35    21    34 1   
@<TRIPOS>SUBSTRUCTURE
     1 DZ3         1 TEMP              0 ****  ****    0 ROOT
