@<TRIPOS>MOLECULE
DZ5
   19    19     1     0     0
SMALL
No Charge or Current Charge


@<TRIPOS>ATOM
      1 O01         64.4330     3.3060    25.3550 o          1 DZ5      -0.699000
      2 C02         64.0310     3.9770    26.2980 c          1 DZ5       0.710200
      3 O03         64.7550     4.2670    27.2440 o          1 DZ5      -0.699000
      4 C04         62.5820     4.4720    26.2940 ce         1 DZ5       0.022400
      5 C05         62.0680     5.2100    27.3320 cf         1 DZ5      -0.263200
      6 C06         60.7350     5.8100    27.5290 ca         1 DZ5      -0.010800
      7 C07         60.0330     6.4310    26.4740 ca         1 DZ5      -0.101500
      8 C08         58.7700     7.0090    26.7010 ca         1 DZ5      -0.149500
      9 C09         58.2090     6.9790    27.9860 ca         1 DZ5       0.125000
     10 F10         56.9980     7.5350    28.2040 f          1 DZ5      -0.206000
     11 C11         58.9060     6.3850    29.0480 ca         1 DZ5      -0.149500
     12 C12         60.1690     5.8080    28.8200 ca         1 DZ5      -0.101500
     13 S13         61.5250     4.0010    24.8870 sh         1 DZ5      -0.305400
     14 H2          62.7400     5.4070    28.1700 ha         1 DZ5       0.214000
     15 H3          60.4720     6.4950    25.4820 ha         1 DZ5       0.122000
     16 H4          58.2330     7.4870    25.8860 ha         1 DZ5       0.116500
     17 H5          58.4710     6.3720    30.0440 ha         1 DZ5       0.116500
     18 H6          60.7050     5.3490    29.6470 ha         1 DZ5       0.122000
     19 H7          60.3590     4.4950    25.3610 hs         1 DZ5       0.137800
@<TRIPOS>BOND
     1     1     2 1   
     2     2     3 1   
     3     2     4 1   
     4     4     5 2   
     5     4    13 1   
     6     5     6 1   
     7     5    14 1   
     8     6     7 ar  
     9     6    12 ar  
    10     7     8 ar  
    11     7    15 1   
    12     8     9 ar  
    13     8    16 1   
    14     9    10 1   
    15     9    11 ar  
    16    11    12 ar  
    17    11    17 1   
    18    12    18 1   
    19    13    19 1   
@<TRIPOS>SUBSTRUCTURE
     1 DZ5         1 TEMP              0 ****  ****    0 ROOT
