@<TRIPOS>MOLECULE
DZ5
   19    19     1     0     0
SMALL
abcg2


@<TRIPOS>ATOM
      1 O01         64.3730     3.4140    25.2870 o          1 DZ5      -0.699000
      2 C02         63.9930     4.0120    26.3250 c          1 DZ5       0.710200
      3 O03         64.6790     4.2650    27.3420 o          1 DZ5      -0.699000
      4 C04         62.5340     4.4850    26.3120 ce         1 DZ5       0.022400
      5 C05         62.0390     5.2080    27.3290 cf         1 DZ5      -0.263200
      6 C06         60.7200     5.8140    27.5200 ca         1 DZ5      -0.010800
      7 C07         60.0040     6.4370    26.4880 ca         1 DZ5      -0.101500
      8 C08         58.7680     7.0270    26.7220 ca         1 DZ5      -0.149500
      9 C09         58.2480     6.9860    28.0020 ca         1 DZ5       0.125000
     10 F10         57.0360     7.5540    28.2350 f          1 DZ5      -0.206000
     11 C11         58.9250     6.4020    29.0570 ca         1 DZ5      -0.149500
     12 C12         60.1640     5.8290    28.8080 ca         1 DZ5      -0.101500
     13 S13         61.6830     3.9270    24.8630 sh         1 DZ5      -0.305400
     14 H2          62.7340     5.3300    28.1540 ha         1 DZ5       0.214000
     15 H3          60.4270     6.4940    25.4950 ha         1 DZ5       0.122000
     16 H4          58.2190     7.5170    25.9280 ha         1 DZ5       0.116500
     17 H5          58.4910     6.4020    30.0480 ha         1 DZ5       0.116500
     18 H6          60.7120     5.3770    29.6260 ha         1 DZ5       0.122000
     19 H7          60.4460     4.3140    25.2230 hs         1 DZ5       0.137800
@<TRIPOS>BOND
     1     1     2 1   
     2     2     3 1   
     3     2     4 1   
     4     4     5 2   
     5     4    13 1   
     6     5     6 1   
     7     5    14 1   
     8     6     7 ar  
     9     6    12 ar  
    10     7     8 ar  
    11     7    15 1   
    12     8     9 ar  
    13     8    16 1   
    14     9    10 1   
    15     9    11 ar  
    16    11    12 ar  
    17    11    17 1   
    18    12    18 1   
    19    13    19 1   
@<TRIPOS>SUBSTRUCTURE
     1 DZ5         1 TEMP              0 ****  ****    0 ROOT
