@<TRIPOS>MOLECULE
DZ6
   81    86     1     0     0
SMALL
bcc


@<TRIPOS>ATOM
      1 CBN          7.0400     1.1080    -1.2760 c6         1 DZ6       0.197800
      2 CBO          8.2600     1.2380    -2.1700 c6         1 DZ6       0.157300
      3 NBP          9.4820     1.0880    -1.4090 n3         1 DZ6      -0.714600
      4 CBS         10.6520     1.2840    -2.2350 c3         1 DZ6       0.151100
      5 CBQ          9.4980    -0.2040    -0.7560 c6         1 DZ6       0.157300
      6 CBR          8.2980    -0.3570     0.1560 c6         1 DZ6       0.197800
      7 NBM          7.0590    -0.1660    -0.5870 nh         1 DZ6      -0.652000
      8 CBE          5.8830    -0.6020     0.0220 ca         1 DZ6       0.182600
      9 CBD          4.7640     0.2160     0.1450 ca         1 DZ6      -0.250000
     10 CBF          5.7950    -1.9160     0.5070 ca         1 DZ6      -0.187000
     11 CBG          4.6330    -2.3930     1.0840 ca         1 DZ6      -0.023300
     12 CBI          4.5720    -3.8230     1.5720 c3         1 DZ6      -0.018400
     13 CBK          4.3780    -3.8910     3.0870 c3         1 DZ6      -0.085100
     14 CBJ          3.4900    -4.6230     0.8450 c3         1 DZ6      -0.085100
     15 CBH          3.5120    -1.5660     1.1960 ca         1 DZ6      -0.177000
     16 CBC          3.5830    -0.2630     0.7220 ca         1 DZ6       0.097600
     17 NBA          2.5300     0.6600     0.7830 ns         1 DZ6      -0.470100
     18 CAZ          1.3020     0.5380     1.3430 c          1 DZ6       0.687700
     19 OBB          0.8690    -0.4760     1.8590 o          1 DZ6      -0.571100
     20 CAW          0.4970     1.8020     1.2940 ca         1 DZ6      -0.158600
     21 CAX         -0.8130     1.7920     0.8070 ca         1 DZ6       0.001700
     22 CAY         -1.4460     0.5610     0.2280 c3         1 DZ6      -0.055800
     23 CAV          1.0640     2.9660     1.8060 ca         1 DZ6      -0.099000
     24 CAU          0.3350     4.1440     1.8560 ca         1 DZ6      -0.138000
     25 CAT         -0.9630     4.1590     1.3870 ca         1 DZ6      -0.085000
     26 CAS         -1.5370     2.9960     0.8630 ca         1 DZ6       0.017000
     27 CAR         -2.8730     3.0530     0.3820 cg         1 DZ6      -0.089000
     28 CAQ         -4.0090     3.1130    -0.0280 ch         1 DZ6      -0.119300
     29 CAP         -5.3220     3.1240    -0.5130 cd         1 DZ6      -0.045800
     30 CAO         -6.1870     4.1490    -0.8800 cc         1 DZ6       0.056600
     31 NAN         -7.3640     3.6750    -1.3080 nc         1 DZ6      -0.267600
     32 CAK         -7.2650     2.3550    -1.2200 cd         1 DZ6      -0.158600
     33 CAJ         -8.1740     1.3210    -1.5120 cd         1 DZ6       0.470200
     34 NAI         -7.8720     0.0680    -1.3550 nc         1 DZ6      -0.663000
     35 NAL         -6.0350     1.9760    -0.7400 na         1 DZ6       0.070700
     36 CAM         -5.7130     0.6680    -0.5530 cd         1 DZ6      -0.192600
     37 CAH         -6.6390    -0.2810    -0.8840 cc         1 DZ6       0.454800
     38 CAD         -6.3620    -1.7150    -0.7280 ca         1 DZ6      -0.199500
     39 CAC         -7.4090    -2.6330    -0.6130 ca         1 DZ6      -0.054500
     40 CAB         -7.1700    -3.9820    -0.4380 ca         1 DZ6      -0.208500
     41 CAA         -5.8610    -4.4800    -0.3780 ca         1 DZ6       0.177600
     42 NAG         -5.6210    -5.8100    -0.1510 nv         1 DZ6      -0.828200
     43 CAF         -4.8070    -3.5650    -0.5120 ca         1 DZ6      -0.208500
     44 CAE         -5.0600    -2.2180    -0.6850 ca         1 DZ6      -0.054500
     45 H1           7.0080     1.9560    -0.5750 h1         1 DZ6       0.043700
     46 H2           6.1500     1.1670    -1.9050 h1         1 DZ6       0.043700
     47 H3           8.1930     0.4920    -2.9820 h1         1 DZ6       0.039950
     48 H4           8.2460     2.2250    -2.6390 h1         1 DZ6       0.039950
     49 H6          10.6290     2.2770    -2.6860 h1         1 DZ6       0.031700
     50 H7          11.5550     1.2140    -1.6270 h1         1 DZ6       0.031700
     51 H8          10.7350     0.5470    -3.0490 h1         1 DZ6       0.031700
     52 H9           9.5080    -1.0310    -1.4870 h1         1 DZ6       0.039950
     53 H10         10.4070    -0.2910    -0.1550 h1         1 DZ6       0.039950
     54 H11          8.3210    -1.3510     0.6000 h1         1 DZ6       0.043700
     55 H12          8.3680     0.3710     0.9780 h1         1 DZ6       0.043700
     56 H13          4.7970     1.2460    -0.1870 ha         1 DZ6       0.127000
     57 H14          6.6400    -2.5870     0.4040 ha         1 DZ6       0.134000
     58 H15          5.5360    -4.2840     1.3390 hc         1 DZ6       0.046700
     59 H16          3.4180    -3.4670     3.3840 hc         1 DZ6       0.036200
     60 H17          4.4020    -4.9270     3.4300 hc         1 DZ6       0.036200
     61 H18          5.1630    -3.3460     3.6140 hc         1 DZ6       0.036200
     62 H19          2.4900    -4.2700     1.1010 hc         1 DZ6       0.036200
     63 H20          3.6030    -4.5530    -0.2370 hc         1 DZ6       0.036200
     64 H21          3.5450    -5.6770     1.1220 hc         1 DZ6       0.036200
     65 H22          2.6020    -1.9450     1.6330 ha         1 DZ6       0.165000
     66 H23          2.7240     1.5460     0.3410 hn         1 DZ6       0.319500
     67 H24         -1.9650    -0.0110     0.9990 hc         1 DZ6       0.054367
     68 H25         -2.1790     0.8250    -0.5340 hc         1 DZ6       0.054367
     69 H26         -0.7190    -0.1010    -0.2370 hc         1 DZ6       0.054367
     70 H27          2.0780     2.9530     2.1880 ha         1 DZ6       0.139000
     71 H28          0.7780     5.0430     2.2620 ha         1 DZ6       0.141000
     72 H29         -1.5460     5.0700     1.4180 ha         1 DZ6       0.143000
     73 H30         -5.9690     5.2050    -0.8420 h4         1 DZ6       0.185000
     74 H31         -9.1590     1.5770    -1.8840 h4         1 DZ6       0.049100
     75 H32         -4.7420     0.4600    -0.1300 h4         1 DZ6       0.179000
     76 H33         -8.4320    -2.2830    -0.6550 ha         1 DZ6       0.136500
     77 H34         -8.0060    -4.6640    -0.3440 ha         1 DZ6       0.133000
     78 H35         -6.3620    -6.4480    -0.3920 hn         1 DZ6       0.400800
     79 H36         -4.7140    -6.1580    -0.4160 hn         1 DZ6       0.400800
     80 H37         -3.7830    -3.9180    -0.4940 ha         1 DZ6       0.133000
     81 H38         -4.2110    -1.5570    -0.8140 ha         1 DZ6       0.136500
@<TRIPOS>BOND
     1     1     2 1   
     2     1     7 1   
     3     1    45 1   
     4     1    46 1   
     5     2     3 1   
     6     2    47 1   
     7     2    48 1   
     8     3     4 1   
     9     3     5 1   
    10     4    49 1   
    11     4    50 1   
    12     4    51 1   
    13     5     6 1   
    14     5    52 1   
    15     5    53 1   
    16     6     7 1   
    17     6    54 1   
    18     6    55 1   
    19     7     8 1   
    20     8     9 ar  
    21     8    10 ar  
    22     9    16 ar  
    23     9    56 1   
    24    10    11 ar  
    25    10    57 1   
    26    11    12 1   
    27    11    15 ar  
    28    12    13 1   
    29    12    14 1   
    30    12    58 1   
    31    13    59 1   
    32    13    60 1   
    33    13    61 1   
    34    14    62 1   
    35    14    63 1   
    36    14    64 1   
    37    15    16 ar  
    38    15    65 1   
    39    16    17 1   
    40    17    18 1   
    41    17    66 1   
    42    18    19 2   
    43    18    20 1   
    44    20    21 ar  
    45    20    23 ar  
    46    21    22 1   
    47    21    26 ar  
    48    22    67 1   
    49    22    68 1   
    50    22    69 1   
    51    23    24 ar  
    52    23    70 1   
    53    24    25 ar  
    54    24    71 1   
    55    25    26 ar  
    56    25    72 1   
    57    26    27 1   
    58    27    28 3   
    59    28    29 1   
    60    29    30 2   
    61    29    35 1   
    62    30    31 1   
    63    30    73 1   
    64    31    32 2   
    65    32    33 1   
    66    32    35 1   
    67    33    34 2   
    68    33    74 1   
    69    34    37 1   
    70    35    36 1   
    71    36    37 2   
    72    36    75 1   
    73    37    38 1   
    74    38    39 ar  
    75    38    44 ar  
    76    39    40 ar  
    77    39    76 1   
    78    40    41 ar  
    79    40    77 1   
    80    41    42 1   
    81    41    43 ar  
    82    42    78 1   
    83    42    79 1   
    84    43    44 ar  
    85    43    80 1   
    86    44    81 1   
@<TRIPOS>SUBSTRUCTURE
     1 DZ6         1 TEMP              0 ****  ****    0 ROOT
