@<TRIPOS>MOLECULE
DZ6
   81    86     1     0     0
SMALL
No Charge or Current Charge


@<TRIPOS>ATOM
      1 CBN          7.6320     1.2960    -0.8450 c6         1 DZ6       0.197800
      2 CBO          9.0920     1.4490    -1.3850 c6         1 DZ6       0.157300
      3 NBP         10.1290     1.2230    -0.3320 n3         1 DZ6      -0.714600
      4 CBS         11.5050     1.4090    -0.8370 c3         1 DZ6       0.151100
      5 CBQ          9.9220    -0.1170     0.2990 c6         1 DZ6       0.157300
      6 CBR          8.4790    -0.3030     0.8740 c6         1 DZ6       0.197800
      7 NBM          7.4130    -0.0070    -0.1370 nh         1 DZ6      -0.790400
      8 CBE          6.1160    -0.5450     0.0290 ca         1 DZ6       0.321000
      9 CBD          4.9800     0.2860     0.0630 ca         1 DZ6      -0.232000
     10 CBF          5.9480    -1.9330     0.1610 ca         1 DZ6      -0.169000
     11 CBG          4.6700    -2.4970     0.3230 ca         1 DZ6      -0.023300
     12 CBI          4.5120    -4.0140     0.4540 c3         1 DZ6      -0.018400
     13 CBK          3.9080    -4.4060     1.8210 c3         1 DZ6      -0.085100
     14 CBJ          3.6990    -4.6030    -0.7200 c3         1 DZ6      -0.085100
     15 CBH          3.5450    -1.6480     0.3570 ca         1 DZ6      -0.159000
     16 CBC          3.6930    -0.2510     0.2330 ca         1 DZ6       0.005000
     17 NBA          2.6030     0.6600     0.2540 ns         1 DZ6      -0.144000
     18 CAZ          1.2530     0.5060     0.5520 c          1 DZ6       0.620700
     19 OBB          0.7730    -0.5540     0.9380 o          1 DZ6      -0.571100
     20 CAW          0.4300     1.7820     0.4500 ca         1 DZ6      -0.158600
     21 CAX         -0.9610     1.7740     0.1160 ca         1 DZ6       0.001700
     22 CAY         -1.6730     0.4620    -0.2590 c3         1 DZ6      -0.055800
     23 CAV          1.0630     3.0220     0.7190 ca         1 DZ6      -0.081000
     24 CAU          0.3450     4.2240     0.6840 ca         1 DZ6      -0.120000
     25 CAT         -1.0210     4.2150     0.3860 ca         1 DZ6      -0.067000
     26 CAS         -1.6780     3.0050     0.1060 ca         1 DZ6       0.017000
     27 CAR         -3.0860     3.0700    -0.1790 cg         1 DZ6      -0.089000
     28 CAQ         -4.2820     3.1020    -0.4180 ch         1 DZ6      -0.119300
     29 CAP         -5.6740     3.0370    -0.6920 cd         1 DZ6      -0.045800
     30 CAO         -6.5660     4.0220    -1.0710 cc         1 DZ6       0.006600
     31 NAN         -7.8480     3.5250    -1.2400 nc         1 DZ6      -0.267600
     32 CAK         -7.7540     2.2320    -0.9680 cd         1 DZ6      -0.144000
     33 CAJ         -8.7570     1.2220    -0.9660 cd         1 DZ6       0.404900
     34 NAI         -8.4510    -0.0380    -0.6500 nc         1 DZ6      -0.663000
     35 NAL         -6.4780     1.9250    -0.6500 na         1 DZ6       0.172100
     36 CAM         -6.0890     0.6450    -0.2870 cd         1 DZ6      -0.160000
     37 CAH         -7.1180    -0.2970    -0.3280 cc         1 DZ6       0.389500
     38 CAD         -6.7430    -1.6670     0.0510 ca         1 DZ6      -0.199500
     39 CAC         -7.6640    -2.4960     0.7310 ca         1 DZ6      -0.036500
     40 CAB         -7.3260    -3.8200     1.0620 ca         1 DZ6      -0.190500
     41 CAA         -6.0770    -4.3400     0.7040 ca         1 DZ6       0.316000
     42 NAG         -5.7540    -5.6280     1.0250 nv         1 DZ6      -1.077000
     43 CAF         -5.1660    -3.5400     0.0060 ca         1 DZ6      -0.190500
     44 CAE         -5.4950    -2.2150    -0.3290 ca         1 DZ6      -0.036500
     45 H1           7.4230     2.1300    -0.1590 h1         1 DZ6       0.043700
     46 H2           6.9390     1.3870    -1.6950 h1         1 DZ6       0.043700
     47 H3           9.2320     0.7340    -2.2100 h1         1 DZ6       0.039950
     48 H4           9.2000     2.4560    -1.8150 h1         1 DZ6       0.039950
     49 H6          11.6330     2.4190    -1.2510 h1         1 DZ6       0.031700
     50 H7          12.2360     1.2810    -0.0270 h1         1 DZ6       0.031700
     51 H8          11.7360     0.6820    -1.6270 h1         1 DZ6       0.031700
     52 H9          10.1050    -0.9120    -0.4390 h1         1 DZ6       0.039950
     53 H10         10.6440    -0.2680     1.1150 h1         1 DZ6       0.039950
     54 H11          8.3880    -1.3320     1.2480 h1         1 DZ6       0.043700
     55 H12          8.3580     0.3660     1.7390 h1         1 DZ6       0.043700
     56 H13          5.0940     1.3620    -0.0280 ha         1 DZ6       0.109000
     57 H14          6.8200    -2.5790     0.1200 ha         1 DZ6       0.116000
     58 H15          5.5060    -4.4770     0.4080 hc         1 DZ6       0.046700
     59 H16          2.8850    -4.0270     1.9270 hc         1 DZ6       0.036200
     60 H17          3.8810    -5.4970     1.9320 hc         1 DZ6       0.036200
     61 H18          4.5130    -3.9960     2.6390 hc         1 DZ6       0.036200
     62 H19          2.6680    -4.2300    -0.7160 hc         1 DZ6       0.036200
     63 H20          4.1580    -4.3310    -1.6790 hc         1 DZ6       0.036200
     64 H21          3.6670    -5.6970    -0.6570 hc         1 DZ6       0.036200
     65 H22          2.5640    -2.0950     0.4700 ha         1 DZ6       0.147000
     66 H23          2.8570     1.6000    -0.0180 hn         1 DZ6       0.153000
     67 H24         -1.9800    -0.0880     0.6380 hc         1 DZ6       0.054367
     68 H25         -2.5650     0.6120    -0.8760 hc         1 DZ6       0.054367
     69 H26         -1.0250    -0.1910    -0.8540 hc         1 DZ6       0.054367
     70 H27          2.1150     3.0680     0.9910 ha         1 DZ6       0.121000
     71 H28          0.8470     5.1640     0.9030 ha         1 DZ6       0.123000
     72 H29         -1.5720     5.1530     0.3750 ha         1 DZ6       0.125000
     73 H30         -6.3620     5.0750    -1.2350 h4         1 DZ6       0.235000
     74 H31         -9.7950     1.4080    -1.2110 h4         1 DZ6       0.049100
     75 H32         -5.0630     0.4670    -0.0020 h4         1 DZ6       0.161000
     76 H33         -8.6420    -2.1130     1.0170 ha         1 DZ6       0.118500
     77 H34         -8.0420    -4.4380     1.5970 ha         1 DZ6       0.115000
     78 H35         -6.4730    -6.2530     1.3850 hn         1 DZ6       0.456000
     79 H36         -4.9190    -6.0540     0.6270 hn         1 DZ6       0.456000
     80 H37         -4.2000    -3.9430    -0.2870 ha         1 DZ6       0.115000
     81 H38         -4.7770    -1.6250    -0.8950 ha         1 DZ6       0.118500
@<TRIPOS>BOND
     1     1     2 1   
     2     1     7 1   
     3     1    45 1   
     4     1    46 1   
     5     2     3 1   
     6     2    47 1   
     7     2    48 1   
     8     3     4 1   
     9     3     5 1   
    10     4    49 1   
    11     4    50 1   
    12     4    51 1   
    13     5     6 1   
    14     5    52 1   
    15     5    53 1   
    16     6     7 1   
    17     6    54 1   
    18     6    55 1   
    19     7     8 1   
    20     8     9 ar  
    21     8    10 ar  
    22     9    16 ar  
    23     9    56 1   
    24    10    11 ar  
    25    10    57 1   
    26    11    12 1   
    27    11    15 ar  
    28    12    13 1   
    29    12    14 1   
    30    12    58 1   
    31    13    59 1   
    32    13    60 1   
    33    13    61 1   
    34    14    62 1   
    35    14    63 1   
    36    14    64 1   
    37    15    16 ar  
    38    15    65 1   
    39    16    17 1   
    40    17    18 1   
    41    17    66 1   
    42    18    19 2   
    43    18    20 1   
    44    20    21 ar  
    45    20    23 ar  
    46    21    22 1   
    47    21    26 ar  
    48    22    67 1   
    49    22    68 1   
    50    22    69 1   
    51    23    24 ar  
    52    23    70 1   
    53    24    25 ar  
    54    24    71 1   
    55    25    26 ar  
    56    25    72 1   
    57    26    27 1   
    58    27    28 3   
    59    28    29 1   
    60    29    30 2   
    61    29    35 1   
    62    30    31 1   
    63    30    73 1   
    64    31    32 2   
    65    32    33 1   
    66    32    35 1   
    67    33    34 2   
    68    33    74 1   
    69    34    37 1   
    70    35    36 1   
    71    36    37 2   
    72    36    75 1   
    73    37    38 1   
    74    38    39 ar  
    75    38    44 ar  
    76    39    40 ar  
    77    39    76 1   
    78    40    41 ar  
    79    40    77 1   
    80    41    42 1   
    81    41    43 ar  
    82    42    78 1   
    83    42    79 1   
    84    43    44 ar  
    85    43    80 1   
    86    44    81 1   
@<TRIPOS>SUBSTRUCTURE
     1 DZ6         1 TEMP              0 ****  ****    0 ROOT
