@<TRIPOS>MOLECULE
DZ7
   55    58     1     0     0
SMALL
bcc


@<TRIPOS>ATOM
      1 OAC          2.2430    -2.8370     0.0910 o          1 DZ7      -0.524100
      2 CAU          2.3270    -1.6250     0.0020 c          1 DZ7       0.593900
      3 CAZ          3.5490    -0.8220     0.0520 ca         1 DZ7      -0.188600
      4 CAK          4.8670    -1.2630     0.2010 ca         1 DZ7      -0.121000
      5 CAY          5.8770    -0.3270     0.2230 ca         1 DZ7       0.092100
      6 OAS          7.1870    -0.5980     0.3520 os         1 DZ7      -0.298900
      7 CAB          7.5740    -1.9540     0.4390 c3         1 DZ7       0.120700
      8 CAX          5.5620     1.0580     0.1020 ca         1 DZ7       0.146100
      9 OAR          6.6170     1.8760     0.1430 os         1 DZ7      -0.293900
     10 CAA          6.3990     3.2710     0.0290 c3         1 DZ7       0.121700
     11 CAJ          4.2470     1.4750    -0.0480 ca         1 DZ7      -0.203000
     12 CAW          3.2380     0.5200    -0.0750 ca         1 DZ7      -0.040300
     13 CAP          1.7600     0.7370    -0.2340 c5         1 DZ7       0.010100
     14 CAT          1.2070    -0.6650    -0.1840 ce         1 DZ7      -0.219400
     15 CAD         -0.0650    -1.0490    -0.2980 c2         1 DZ7      -0.076200
     16 CBA         -1.2300    -0.1460    -0.5140 c6         1 DZ7      -0.043500
     17 CAM         -1.9560    -0.5000    -1.8160 c6         1 DZ7      -0.069400
     18 CAO         -3.1950     0.3610    -1.9980 c6         1 DZ7       0.169800
     19 CAL         -2.2250    -0.2340     0.6470 c6         1 DZ7      -0.069400
     20 CAN         -3.4570     0.6120     0.3700 c6         1 DZ7       0.169800
     21 NBB         -4.0980     0.2200    -0.8720 n3         1 DZ7      -0.725600
     22 CAQ         -5.3460     0.9180    -1.0810 c3         1 DZ7       0.218100
     23 CAV         -6.4260     0.4820    -0.1230 ca         1 DZ7      -0.088300
     24 CAH         -7.3210     1.4050     0.4060 ca         1 DZ7      -0.117000
     25 CAF         -8.3500     0.9990     1.2480 ca         1 DZ7      -0.132000
     26 CAE         -8.4900    -0.3420     1.5770 ca         1 DZ7      -0.128000
     27 CAG         -7.5950    -1.2720     1.0600 ca         1 DZ7      -0.132000
     28 CAI         -6.5730    -0.8620     0.2160 ca         1 DZ7      -0.117000
     29 H1           5.0690    -2.3220     0.2970 ha         1 DZ7       0.156000
     30 H2           8.6580    -1.9630     0.5060 h1         1 DZ7       0.042033
     31 H3           7.1610    -2.4400     1.3280 h1         1 DZ7       0.042033
     32 H4           7.2680    -2.5200    -0.4450 h1         1 DZ7       0.042033
     33 H5           7.3780     3.7390     0.0880 h1         1 DZ7       0.042700
     34 H6           5.9380     3.5320    -0.9260 h1         1 DZ7       0.042700
     35 H7           5.7750     3.6500     0.8420 h1         1 DZ7       0.042700
     36 H8           4.0030     2.5250    -0.1440 ha         1 DZ7       0.141000
     37 H9           1.3590     1.3690     0.5630 hc         1 DZ7       0.065200
     38 H10         -0.2840    -2.1140    -0.2380 ha         1 DZ7       0.143000
     39 H12         -0.8810     0.8900    -0.5880 hc         1 DZ7       0.049700
     40 H13         -1.2890    -0.3640    -2.6700 hc         1 DZ7       0.051950
     41 H14         -2.2480    -1.5550    -1.7970 hc         1 DZ7       0.051950
     42 H15         -2.8890     1.4110    -2.1500 h1         1 DZ7       0.032950
     43 H16         -3.7190     0.0530    -2.9070 h1         1 DZ7       0.032950
     44 H17         -2.5280    -1.2740     0.7970 hc         1 DZ7       0.051950
     45 H18         -1.7560     0.1030     1.5740 hc         1 DZ7       0.051950
     46 H19         -4.1680     0.4930     1.1900 h1         1 DZ7       0.032950
     47 H20         -3.1740     1.6800     0.3510 h1         1 DZ7       0.032950
     48 H22         -5.2280     2.0140    -1.0240 h1         1 DZ7       0.036700
     49 H23         -5.6820     0.7060    -2.1010 h1         1 DZ7       0.036700
     50 H24         -7.2140     2.4560     0.1600 ha         1 DZ7       0.135500
     51 H25         -9.0380     1.7310     1.6500 ha         1 DZ7       0.129500
     52 H26         -9.2890    -0.6620     2.2350 ha         1 DZ7       0.129000
     53 H27         -7.6950    -2.3190     1.3140 ha         1 DZ7       0.129500
     54 H28         -5.8700    -1.5850    -0.1790 ha         1 DZ7       0.135500
     55 H29          1.5280     1.2370    -1.1780 hc         1 DZ7       0.065200
@<TRIPOS>BOND
     1     1     2 2   
     2     2     3 1   
     3     2    14 1   
     4     3     4 ar  
     5     3    12 ar  
     6     4     5 ar  
     7     4    29 1   
     8     5     6 1   
     9     5     8 ar  
    10     6     7 1   
    11     7    30 1   
    12     7    31 1   
    13     7    32 1   
    14     8     9 1   
    15     8    11 ar  
    16     9    10 1   
    17    10    33 1   
    18    10    34 1   
    19    10    35 1   
    20    11    12 ar  
    21    11    36 1   
    22    12    13 1   
    23    13    14 1   
    24    13    37 1   
    25    13    55 1   
    26    14    15 2   
    27    15    16 1   
    28    15    38 1   
    29    16    17 1   
    30    16    19 1   
    31    16    39 1   
    32    17    18 1   
    33    17    40 1   
    34    17    41 1   
    35    18    21 1   
    36    18    42 1   
    37    18    43 1   
    38    19    20 1   
    39    19    44 1   
    40    19    45 1   
    41    20    21 1   
    42    20    46 1   
    43    20    47 1   
    44    21    22 1   
    45    22    23 1   
    46    22    48 1   
    47    22    49 1   
    48    23    24 ar  
    49    23    28 ar  
    50    24    25 ar  
    51    24    50 1   
    52    25    26 ar  
    53    25    51 1   
    54    26    27 ar  
    55    26    52 1   
    56    27    28 ar  
    57    27    53 1   
    58    28    54 1   
@<TRIPOS>SUBSTRUCTURE
     1 DZ7         1 TEMP              0 ****  ****    0 ROOT
