@<TRIPOS>MOLECULE
DZ7
   55    58     1     0     0
SMALL
No Charge or Current Charge


@<TRIPOS>ATOM
      1 OAC          2.3820    -2.7750     0.7650 o          1 DZ7      -0.524100
      2 CAU          2.4150    -1.5900     0.4590 c          1 DZ7       0.593900
      3 CAZ          3.6530    -0.8060     0.2310 ca         1 DZ7      -0.188600
      4 CAK          4.9890    -1.2290     0.3110 ca         1 DZ7      -0.103000
      5 CAY          6.0120    -0.2850     0.0460 ca         1 DZ7       0.092100
      6 OAS          7.3540    -0.6300     0.1050 os         1 DZ7      -0.322100
      7 CAB          7.7950    -1.9580     0.4380 c3         1 DZ7       0.143900
      8 CAX          5.6690     1.0550    -0.2920 ca         1 DZ7       0.146100
      9 OAR          6.6920     1.9540    -0.5450 os         1 DZ7      -0.317100
     10 CAA          6.4440     3.3280    -0.8930 c3         1 DZ7       0.144900
     11 CAJ          4.3060     1.4440    -0.3620 ca         1 DZ7      -0.185000
     12 CAW          3.3150     0.4900    -0.0950 ca         1 DZ7      -0.040300
     13 CAP          1.8130     0.6760    -0.1090 c5         1 DZ7       0.010100
     14 CAT          1.2170    -0.7040     0.2510 ce         1 DZ7      -0.219400
     15 CAD         -0.0710    -1.1060     0.3610 c2         1 DZ7      -0.126200
     16 CBA         -1.2630    -0.1860     0.1300 c6         1 DZ7      -0.043500
     17 CAM         -1.6770    -0.1750    -1.3610 c6         1 DZ7      -0.069400
     18 CAO         -2.9250     0.7140    -1.5890 c6         1 DZ7       0.169800
     19 CAL         -2.4780    -0.5990     0.9980 c6         1 DZ7      -0.069400
     20 CAN         -3.7040     0.3020     0.7090 c6         1 DZ7       0.169800
     21 NBB         -4.0690     0.2870    -0.7370 n3         1 DZ7      -0.725600
     22 CAQ         -5.2990     1.0620    -1.0300 c3         1 DZ7       0.218100
     23 CAV         -6.5410     0.5300    -0.3180 ca         1 DZ7      -0.088300
     24 CAH         -7.1640     1.2860     0.6960 ca         1 DZ7      -0.099000
     25 CAF         -8.3070     0.7910     1.3480 ca         1 DZ7      -0.114000
     26 CAE         -8.8340    -0.4620     0.9920 ca         1 DZ7      -0.110000
     27 CAG         -8.2180    -1.2200    -0.0180 ca         1 DZ7      -0.114000
     28 CAI         -7.0750    -0.7260    -0.6700 ca         1 DZ7      -0.099000
     29 H1           5.2080    -2.2610     0.5720 ha         1 DZ7       0.138000
     30 H2           8.8910    -2.0070     0.4260 h1         1 DZ7       0.042033
     31 H3           7.4530    -2.2440     1.4400 h1         1 DZ7       0.042033
     32 H4           7.4150    -2.6890    -0.2880 h1         1 DZ7       0.042033
     33 H5           7.3920     3.8570    -1.0500 h1         1 DZ7       0.042700
     34 H6           5.8600     3.3960    -1.8200 h1         1 DZ7       0.042700
     35 H7           5.8970     3.8410    -0.0920 h1         1 DZ7       0.042700
     36 H8           4.0090     2.4570    -0.6160 ha         1 DZ7       0.123000
     37 H9           1.5010     1.4380     0.6150 hc         1 DZ7       0.065200
     38 H10         -0.3020    -2.1420     0.6200 ha         1 DZ7       0.193000
     39 H12         -0.9790     0.8370     0.4180 hc         1 DZ7       0.049700
     40 H13         -0.8480     0.1900    -1.9810 hc         1 DZ7       0.051950
     41 H14         -1.8930    -1.1980    -1.6980 hc         1 DZ7       0.051950
     42 H15         -2.6620     1.7610    -1.3740 h1         1 DZ7       0.032950
     43 H16         -3.2020     0.6630    -2.6520 h1         1 DZ7       0.032950
     44 H17         -2.7460    -1.6460     0.7990 hc         1 DZ7       0.051950
     45 H18         -2.2190    -0.5370     2.0630 hc         1 DZ7       0.051950
     46 H19         -4.5430    -0.0540     1.3240 h1         1 DZ7       0.032950
     47 H20         -3.4800     1.3290     1.0340 h1         1 DZ7       0.032950
     48 H22         -5.1500     2.1160    -0.7580 h1         1 DZ7       0.036700
     49 H23         -5.5000     1.0400    -2.1100 h1         1 DZ7       0.036700
     50 H24         -6.7610     2.2560     0.9800 ha         1 DZ7       0.117500
     51 H25         -8.7830     1.3780     2.1300 ha         1 DZ7       0.111500
     52 H26         -9.7190    -0.8440     1.4970 ha         1 DZ7       0.111000
     53 H27         -8.6240    -2.1910    -0.2940 ha         1 DZ7       0.111500
     54 H28         -6.5980    -1.3180    -1.4480 ha         1 DZ7       0.117500
     55 H29          1.4620     1.0110    -1.0920 hc         1 DZ7       0.065200
@<TRIPOS>BOND
     1     1     2 2   
     2     2     3 1   
     3     2    14 1   
     4     3     4 ar  
     5     3    12 ar  
     6     4     5 ar  
     7     4    29 1   
     8     5     6 1   
     9     5     8 ar  
    10     6     7 1   
    11     7    30 1   
    12     7    31 1   
    13     7    32 1   
    14     8     9 1   
    15     8    11 ar  
    16     9    10 1   
    17    10    33 1   
    18    10    34 1   
    19    10    35 1   
    20    11    12 ar  
    21    11    36 1   
    22    12    13 1   
    23    13    14 1   
    24    13    37 1   
    25    13    55 1   
    26    14    15 2   
    27    15    16 1   
    28    15    38 1   
    29    16    17 1   
    30    16    19 1   
    31    16    39 1   
    32    17    18 1   
    33    17    40 1   
    34    17    41 1   
    35    18    21 1   
    36    18    42 1   
    37    18    43 1   
    38    19    20 1   
    39    19    44 1   
    40    19    45 1   
    41    20    21 1   
    42    20    46 1   
    43    20    47 1   
    44    21    22 1   
    45    22    23 1   
    46    22    48 1   
    47    22    49 1   
    48    23    24 ar  
    49    23    28 ar  
    50    24    25 ar  
    51    24    50 1   
    52    25    26 ar  
    53    25    51 1   
    54    26    27 ar  
    55    26    52 1   
    56    27    28 ar  
    57    27    53 1   
    58    28    54 1   
@<TRIPOS>SUBSTRUCTURE
     1 DZ7         1 TEMP              0 ****  ****    0 ROOT
