@<TRIPOS>MOLECULE
DZ8
   51    54     1     0     0
SMALL
No Charge or Current Charge


@<TRIPOS>ATOM
      1 C96          6.0870     1.9700     1.5050 c3         1 DZ8      -0.109100
      2 C94          5.6970     1.1360     0.2710 c3         1 DZ8       0.172500
      3 C95          6.8290     0.1760    -0.1550 c3         1 DZ8      -0.109100
      4 N94          4.4720     0.3830     0.5850 n7         1 DZ8      -0.868400
      5 C93          3.7260    -0.1750    -0.5570 c3         1 DZ8       0.164800
      6 C92          2.4080    -0.7940    -0.0640 c3         1 DZ8      -0.103400
      7 C91          1.5280    -1.3090    -1.2220 c3         1 DZ8       0.085600
      8 N9           0.1930    -1.7430    -0.7770 na         1 DZ8      -0.264300
      9 C4          -0.0970    -3.0000    -0.3160 ca         1 DZ8       0.143500
     10 N3           0.6930    -4.0660    -0.0820 nb         1 DZ8      -0.250000
     11 C2           0.0570    -5.1670     0.3740 ca         1 DZ8       0.408200
     12 F2           0.8320    -6.2470     0.6120 f          1 DZ8      -0.207200
     13 N1          -1.2620    -5.3190     0.6180 nb         1 DZ8      -0.330000
     14 C6          -2.0150    -4.2390     0.3780 ca         1 DZ8       0.479900
     15 N6          -3.3440    -4.3780     0.6180 nv         1 DZ8      -1.054900
     16 C5          -1.4530    -3.0370    -0.1020 ca         1 DZ8      -0.112600
     17 N7          -2.0810    -1.8320    -0.4120 nc         1 DZ8      -0.536100
     18 C8          -1.0440    -1.0690    -0.8020 cd         1 DZ8       0.402800
     19 C81         -1.2480     0.3610    -1.2550 c3         1 DZ8      -0.042400
     20 C1          -0.2940     1.3870    -0.6390 ca         1 DZ8      -0.058300
     21 C12          0.6700     2.0150    -1.4660 ca         1 DZ8      -0.109000
     22 C13          1.5650     2.9190    -0.8840 ca         1 DZ8       0.073100
     23 O3           2.5410     3.6010    -1.5350 os         1 DZ8      -0.342100
     24 C7           3.2460     4.2730    -0.4310 c5         1 DZ8       0.372600
     25 O1           2.4530     4.1390     0.8010 os         1 DZ8      -0.334100
     26 C10          1.5160     3.2240     0.4450 ca         1 DZ8       0.067100
     27 C3           0.5650     2.6500     1.2940 ca         1 DZ8      -0.073000
     28 C11         -0.3450     1.7230     0.7470 ca         1 DZ8       0.202000
     29 I           -1.8090     0.8400     2.0890 i          1 DZ8      -0.287000
     30 H961         6.9760     2.5750     1.2940 hc         1 DZ8       0.038367
     31 H962         5.2740     2.6510     1.7840 hc         1 DZ8       0.038367
     32 H963         6.3070     1.3240     2.3640 hc         1 DZ8       0.038367
     33 H94          5.5080     1.8360    -0.5560 h1         1 DZ8       0.050700
     34 H951         6.5700    -0.3560    -1.0780 hc         1 DZ8       0.038367
     35 H952         7.7520     0.7360    -0.3430 hc         1 DZ8       0.038367
     36 H953         7.0320    -0.5650     0.6270 hc         1 DZ8       0.038367
     37 HN94         4.7110    -0.3760     1.2330 hn         1 DZ8       0.411000
     38 H931         3.4970     0.6190    -1.2820 h1         1 DZ8       0.030700
     39 H932         4.3140    -0.9450    -1.0740 h1         1 DZ8       0.030700
     40 H921         2.6230    -1.6220     0.6210 hc         1 DZ8       0.065200
     41 H922         1.8550    -0.0420     0.5080 hc         1 DZ8       0.065200
     42 H911         1.4100    -0.5230    -1.9770 h1         1 DZ8       0.064700
     43 H912         2.0320    -2.1530    -1.7110 h1         1 DZ8       0.064700
     44 HN61        -3.9490    -3.6560     0.2350 hn         1 DZ8       0.511500
     45 HN62        -3.7280    -5.3170     0.6600 hn         1 DZ8       0.511500
     46 H811        -1.1670     0.3830    -2.3480 hc         1 DZ8       0.080200
     47 H812        -2.2810     0.6640    -1.0470 hc         1 DZ8       0.080200
     48 H6           0.7330     1.7970    -2.5300 ha         1 DZ8       0.132000
     49 H7'1         4.2160     3.7850    -0.2820 h2         1 DZ8       0.071200
     50 H7'2         3.3920     5.3330    -0.6700 h2         1 DZ8       0.071200
     51 H3           0.5310     2.9100     2.3470 ha         1 DZ8       0.149000
@<TRIPOS>BOND
     1     1     2 1   
     2     1    30 1   
     3     1    31 1   
     4     1    32 1   
     5     2     3 1   
     6     2     4 1   
     7     2    33 1   
     8     3    34 1   
     9     3    35 1   
    10     3    36 1   
    11     4     5 1   
    12     4    37 1   
    13     5     6 1   
    14     5    38 1   
    15     5    39 1   
    16     6     7 1   
    17     6    40 1   
    18     6    41 1   
    19     7     8 1   
    20     7    42 1   
    21     7    43 1   
    22     8     9 1   
    23     8    18 1   
    24     9    10 ar  
    25     9    16 ar  
    26    10    11 ar  
    27    11    12 1   
    28    11    13 ar  
    29    13    14 ar  
    30    14    15 1   
    31    14    16 ar  
    32    15    44 1   
    33    15    45 1   
    34    16    17 1   
    35    17    18 2   
    36    18    19 1   
    37    19    20 1   
    38    19    46 1   
    39    19    47 1   
    40    20    21 ar  
    41    20    28 ar  
    42    21    22 ar  
    43    21    48 1   
    44    22    23 1   
    45    22    26 ar  
    46    23    24 1   
    47    24    25 1   
    48    24    49 1   
    49    24    50 1   
    50    25    26 1   
    51    26    27 ar  
    52    27    28 ar  
    53    27    51 1   
    54    28    29 1   
@<TRIPOS>SUBSTRUCTURE
     1 DZ8         1 TEMP              0 ****  ****    0 ROOT
