@<TRIPOS>MOLECULE
DZ8
   51    54     1     0     0
SMALL
abcg2


@<TRIPOS>ATOM
      1 C96          6.2250     1.8100     1.4500 c3         1 DZ8      -0.109100
      2 C94          5.6750     1.0850     0.2300 c3         1 DZ8       0.172500
      3 C95          6.6970     0.0740    -0.2960 c3         1 DZ8      -0.109100
      4 N94          4.3780     0.5160     0.5710 n7         1 DZ8      -0.868400
      5 C93          3.6710    -0.1180    -0.5230 c3         1 DZ8       0.164800
      6 C92          2.3260    -0.6470    -0.0500 c3         1 DZ8      -0.103400
      7 C91          1.5380    -1.2450    -1.2060 c3         1 DZ8       0.085600
      8 N9           0.2200    -1.7140    -0.8160 na         1 DZ8      -0.264300
      9 C4          -0.0380    -2.9500    -0.3180 ca         1 DZ8       0.143500
     10 N3           0.8320    -3.9330    -0.0690 nb         1 DZ8      -0.250000
     11 C2           0.2130    -4.9800     0.3990 ca         1 DZ8       0.408200
     12 F2           1.0010    -6.0190     0.6760 f          1 DZ8      -0.207200
     13 N1          -1.0580    -5.1950     0.6480 nb         1 DZ8      -0.330000
     14 C6          -1.9220    -4.2030     0.3910 ca         1 DZ8       0.479900
     15 N6          -3.2150    -4.3930     0.6370 nv         1 DZ8      -1.054900
     16 C5          -1.4070    -3.0000    -0.1260 ca         1 DZ8      -0.112600
     17 N7          -1.9840    -1.8160    -0.4890 nc         1 DZ8      -0.536100
     18 C8          -0.9950    -1.0660    -0.8880 cd         1 DZ8       0.402800
     19 C81         -1.1690     0.3290    -1.3990 c3         1 DZ8      -0.042400
     20 C1          -0.3300     1.3770    -0.7060 ca         1 DZ8      -0.058300
     21 C12          0.6960     1.9900    -1.4510 ca         1 DZ8      -0.109000
     22 C13          1.5300     2.8710    -0.8190 ca         1 DZ8       0.073100
     23 O3           2.5790     3.5580    -1.3230 os         1 DZ8      -0.342100
     24 C7           3.2220     4.1670    -0.2090 c5         1 DZ8       0.372600
     25 O1           2.3180     4.0800     0.8860 os         1 DZ8      -0.334100
     26 C10          1.3730     3.1870     0.5200 ca         1 DZ8       0.067100
     27 C3           0.3580     2.6540     1.2700 ca         1 DZ8      -0.073000
     28 C11         -0.4910     1.7420     0.6260 ca         1 DZ8       0.202000
     29 I           -2.0550     0.9600     1.8000 i          1 DZ8      -0.287000
     30 H961         7.1710     2.3030     1.2220 hc         1 DZ8       0.038367
     31 H962         5.5260     2.5660     1.8110 hc         1 DZ8       0.038367
     32 H963         6.4080     1.1090     2.2690 hc         1 DZ8       0.038367
     33 H94          5.4980     1.8250    -0.5590 h1         1 DZ8       0.050700
     34 H951         6.3700    -0.3990    -1.2230 hc         1 DZ8       0.038367
     35 H952         7.6540     0.5580    -0.4980 hc         1 DZ8       0.038367
     36 H953         6.8690    -0.7150     0.4410 hc         1 DZ8       0.038367
     37 HN94         4.5090    -0.1640     1.3130 hn         1 DZ8       0.411000
     38 H931         3.5110     0.6320    -1.3060 h1         1 DZ8       0.030700
     39 H932         4.2300    -0.9400    -0.9950 h1         1 DZ8       0.030700
     40 H921         2.4770    -1.4140     0.7160 hc         1 DZ8       0.065200
     41 H922         1.7630     0.1630     0.4140 hc         1 DZ8       0.065200
     42 H911         1.4190    -0.5240    -2.0140 h1         1 DZ8       0.064700
     43 H912         2.0710    -2.0970    -1.6290 h1         1 DZ8       0.064700
     44 HN61        -3.8920    -3.6810     0.4250 hn         1 DZ8       0.511500
     45 HN62        -3.5460    -5.2770     0.9840 hn         1 DZ8       0.511500
     46 H811        -0.9380     0.3510    -2.4680 hc         1 DZ8       0.080200
     47 H812        -2.2330     0.5590    -1.3160 hc         1 DZ8       0.080200
     48 H6           0.8340     1.7390    -2.4950 ha         1 DZ8       0.132000
     49 H7'1         4.1430     3.6250     0.0280 h2         1 DZ8       0.071200
     50 H7'2         3.4350     5.2110    -0.4310 h2         1 DZ8       0.071200
     51 H3           0.2250     2.9260     2.3080 ha         1 DZ8       0.149000
@<TRIPOS>BOND
     1     1     2 1   
     2     1    30 1   
     3     1    31 1   
     4     1    32 1   
     5     2     3 1   
     6     2     4 1   
     7     2    33 1   
     8     3    34 1   
     9     3    35 1   
    10     3    36 1   
    11     4     5 1   
    12     4    37 1   
    13     5     6 1   
    14     5    38 1   
    15     5    39 1   
    16     6     7 1   
    17     6    40 1   
    18     6    41 1   
    19     7     8 1   
    20     7    42 1   
    21     7    43 1   
    22     8     9 1   
    23     8    18 1   
    24     9    10 ar  
    25     9    16 ar  
    26    10    11 ar  
    27    11    12 1   
    28    11    13 ar  
    29    13    14 ar  
    30    14    15 1   
    31    14    16 ar  
    32    15    44 1   
    33    15    45 1   
    34    16    17 1   
    35    17    18 2   
    36    18    19 1   
    37    19    20 1   
    38    19    46 1   
    39    19    47 1   
    40    20    21 ar  
    41    20    28 ar  
    42    21    22 ar  
    43    21    48 1   
    44    22    23 1   
    45    22    26 ar  
    46    23    24 1   
    47    24    25 1   
    48    24    49 1   
    49    24    50 1   
    50    25    26 1   
    51    26    27 ar  
    52    27    28 ar  
    53    27    51 1   
    54    28    29 1   
@<TRIPOS>SUBSTRUCTURE
     1 DZ8         1 TEMP              0 ****  ****    0 ROOT
