@<TRIPOS>MOLECULE
DZ9
   37    40     1     0     0
SMALL
abcg2


@<TRIPOS>ATOM
      1 CAL          5.3800    -0.2670     0.0500 ca         1 DZ9      -0.181000
      2 CAR          6.7020     0.1360     0.0290 ca         1 DZ9       0.197000
      3 FAC          7.6410    -0.8140     0.1790 f          1 DZ9      -0.180000
      4 CAG          7.1030     1.4440    -0.1380 ca         1 DZ9      -0.184000
      5 CAE          6.1060     2.3980    -0.2910 ca         1 DZ9      -0.055000
      6 CAH          4.7700     2.0430    -0.2770 ca         1 DZ9      -0.191000
      7 CAS          4.3910     0.7060    -0.1070 ca         1 DZ9       0.016000
      8 NAN          3.0230     0.4460    -0.0960 ns         1 DZ9      -0.140000
      9 CAQ          2.3720    -0.7530    -0.0170 c          1 DZ9       0.671300
     10 OAB          2.9660    -1.8270     0.0200 o          1 DZ9      -0.621100
     11 CAW          0.9210    -0.6930     0.0120 cc         1 DZ9      -0.283600
     12 CAT          0.0950    -1.8020    -0.0570 cd         1 DZ9       0.293800
     13 NAA          0.4720    -3.0920    -0.0880 nv         1 DZ9      -0.931000
     14 SAP          0.0220     0.8190     0.1150 ss         1 DZ9      -0.141900
     15 CAY         -1.4800    -0.0350     0.0210 ca         1 DZ9       0.446300
     16 NAM         -2.6430     0.5820     0.0440 nb         1 DZ9      -0.654000
     17 CAX         -1.2950    -1.4200    -0.0590 ca         1 DZ9      -0.189800
     18 CAK         -2.4470    -2.2030    -0.1190 ca         1 DZ9      -0.012000
     19 CAJ         -3.6720    -1.5750    -0.1020 ca         1 DZ9      -0.181000
     20 CAU         -3.7360    -0.1720    -0.0190 ca         1 DZ9       0.479500
     21 CAV         -5.0060     0.5440     0.0060 cc         1 DZ9      -0.299500
     22 CAI         -5.1870     1.8990     0.1060 cd         1 DZ9      -0.074000
     23 CAD         -6.5510     2.2760     0.1050 cd         1 DZ9      -0.141000
     24 CAF         -7.3890     1.2050     0.0050 cc         1 DZ9      -0.230000
     25 SAO         -6.5270    -0.2670    -0.0910 ss         1 DZ9       0.214000
     26 HAL          5.1430    -1.3090     0.1840 ha         1 DZ9       0.165000
     27 HAG          8.1520     1.7100    -0.1510 ha         1 DZ9       0.133000
     28 HAE          6.3760     3.4370    -0.4250 ha         1 DZ9       0.116000
     29 HAH          4.0110     2.8060    -0.3980 ha         1 DZ9       0.114000
     30 HNAN         2.4590     1.2730    -0.2180 hn         1 DZ9       0.154000
     31 HNAA         1.4480    -3.3030    -0.2130 hn         1 DZ9       0.498500
     32 HNAB        -0.1810    -3.7860    -0.4080 hn         1 DZ9       0.498500
     33 HAK         -2.3970    -3.2830    -0.1750 ha         1 DZ9       0.119000
     34 HAJ         -4.5730    -2.1720    -0.1470 ha         1 DZ9       0.130000
     35 HAI         -4.3660     2.5970     0.1770 ha         1 DZ9       0.153000
     36 HAD         -6.8950     3.2970     0.1770 ha         1 DZ9       0.139000
     37 HAF         -8.4670     1.2030    -0.0190 h4         1 DZ9       0.153000
@<TRIPOS>BOND
     1     1     2 ar  
     2     1     7 ar  
     3     1    26 1   
     4     2     3 1   
     5     2     4 ar  
     6     4     5 ar  
     7     4    27 1   
     8     5     6 ar  
     9     5    28 1   
    10     6     7 ar  
    11     6    29 1   
    12     7     8 1   
    13     8     9 1   
    14     8    30 1   
    15     9    10 2   
    16     9    11 1   
    17    11    12 2   
    18    11    14 1   
    19    12    13 1   
    20    12    17 1   
    21    13    31 1   
    22    13    32 1   
    23    14    15 1   
    24    15    16 ar  
    25    15    17 ar  
    26    16    20 ar  
    27    17    18 ar  
    28    18    19 ar  
    29    18    33 1   
    30    19    20 ar  
    31    19    34 1   
    32    20    21 1   
    33    21    22 2   
    34    21    25 1   
    35    22    23 1   
    36    22    35 1   
    37    23    24 2   
    38    23    36 1   
    39    24    25 1   
    40    24    37 1   
@<TRIPOS>SUBSTRUCTURE
     1 DZ9         1 TEMP              0 ****  ****    0 ROOT
