@<TRIPOS>MOLECULE
DZ9
   37    40     1     0     0
SMALL
No Charge or Current Charge


@<TRIPOS>ATOM
      1 CAL          5.4920    -0.2490    -0.1210 ca         1 DZ9      -0.181000
      2 CAR          6.8210     0.2030    -0.1430 ca         1 DZ9       0.197000
      3 FAC          7.8320    -0.6930    -0.1700 f          1 DZ9      -0.180000
      4 CAG          7.1090     1.5750    -0.1380 ca         1 DZ9      -0.184000
      5 CAE          6.0590     2.5050    -0.1110 ca         1 DZ9      -0.055000
      6 CAH          4.7270     2.0550    -0.0880 ca         1 DZ9      -0.191000
      7 CAS          4.4280     0.6790    -0.0940 ca         1 DZ9       0.016000
      8 NAN          3.0570     0.3070    -0.0700 ns         1 DZ9      -0.140000
      9 CAQ          2.4180    -0.9240    -0.0750 c          1 DZ9       0.671300
     10 OAB          3.0040    -2.0030    -0.1070 o          1 DZ9      -0.621100
     11 CAW          0.9390    -0.7920    -0.0420 cc         1 DZ9      -0.283600
     12 CAT          0.0460    -1.8450    -0.0350 cd         1 DZ9       0.293800
     13 NAA          0.4310    -3.1480    -0.0350 nv         1 DZ9      -0.931000
     14 SAP          0.0900     0.7900    -0.0280 ss         1 DZ9      -0.141900
     15 CAY         -1.4710    -0.0680    -0.0290 ca         1 DZ9       0.446300
     16 NAM         -2.6500     0.5790    -0.0240 nb         1 DZ9      -0.654000
     17 CAX         -1.3400    -1.4400    -0.0290 ca         1 DZ9      -0.189800
     18 CAK         -2.4850    -2.2480    -0.0200 ca         1 DZ9      -0.012000
     19 CAJ         -3.7270    -1.5890    -0.0150 ca         1 DZ9      -0.181000
     20 CAU         -3.7770    -0.1750    -0.0180 ca         1 DZ9       0.479500
     21 CAV         -5.0670     0.5260    -0.0130 cc         1 DZ9      -0.299500
     22 CAI         -5.1680     1.9000    -0.0140 cd         1 DZ9      -0.074000
     23 CAD         -6.5160     2.3500    -0.0080 cd         1 DZ9      -0.141000
     24 CAF         -7.4390     1.3320    -0.0030 cc         1 DZ9      -0.230000
     25 SAO         -6.6500    -0.2430    -0.0050 ss         1 DZ9       0.214000
     26 HAL          5.3180    -1.3190    -0.1260 ha         1 DZ9       0.165000
     27 HAG          8.1420     1.9130    -0.1550 ha         1 DZ9       0.133000
     28 HAE          6.2750     3.5720    -0.1060 ha         1 DZ9       0.116000
     29 HAH          3.9210     2.7860    -0.0670 ha         1 DZ9       0.114000
     30 HNAN         2.4220     1.0930    -0.0440 hn         1 DZ9       0.154000
     31 HNAA         1.4250    -3.3540    -0.1410 hn         1 DZ9       0.498500
     32 HNAB        -0.2280    -3.8880    -0.2640 hn         1 DZ9       0.498500
     33 HAK         -2.4260    -3.3340    -0.0150 ha         1 DZ9       0.119000
     34 HAJ         -4.6390    -2.1760    -0.0080 ha         1 DZ9       0.130000
     35 HAI         -4.3200     2.5810    -0.0180 ha         1 DZ9       0.153000
     36 HAD         -6.7910     3.4010    -0.0080 ha         1 DZ9       0.139000
     37 HAF         -8.5200     1.3870     0.0020 h4         1 DZ9       0.153000
@<TRIPOS>BOND
     1     1     2 ar  
     2     1     7 ar  
     3     1    26 1   
     4     2     3 1   
     5     2     4 ar  
     6     4     5 ar  
     7     4    27 1   
     8     5     6 ar  
     9     5    28 1   
    10     6     7 ar  
    11     6    29 1   
    12     7     8 1   
    13     8     9 1   
    14     8    30 1   
    15     9    10 2   
    16     9    11 1   
    17    11    12 2   
    18    11    14 1   
    19    12    13 1   
    20    12    17 1   
    21    13    31 1   
    22    13    32 1   
    23    14    15 1   
    24    15    16 ar  
    25    15    17 ar  
    26    16    20 ar  
    27    17    18 ar  
    28    18    19 ar  
    29    18    33 1   
    30    19    20 ar  
    31    19    34 1   
    32    20    21 1   
    33    21    22 2   
    34    21    25 1   
    35    22    23 1   
    36    22    35 1   
    37    23    24 2   
    38    23    36 1   
    39    24    25 1   
    40    24    37 1   
@<TRIPOS>SUBSTRUCTURE
     1 DZ9         1 TEMP              0 ****  ****    0 ROOT
