@<TRIPOS>MOLECULE
DZA
   22    21     1     0     0
SMALL
abcg2


@<TRIPOS>ATOM
      1 O10          3.9450    -0.1760    -1.1630 o          1 DZA      -0.739500
      2 C09          3.1450     0.1950    -0.2800 c          1 DZA       0.718000
      3 O11          3.3870     0.9790     0.6580 o          1 DZA      -0.739500
      4 C08          1.7320    -0.4130    -0.3580 c3         1 DZA      -0.204400
      5 C07          0.6910     0.2890     0.5040 c3         1 DZA      -0.130400
      6 C02         -0.6380    -0.4320     0.4880 c          1 DZA       0.610100
      7 O01         -0.7450    -1.6160     0.7670 o          1 DZA      -0.597100
      8 N03         -1.6850     0.3450     0.1420 ns         1 DZA      -0.415300
      9 N04         -2.9770    -0.1400     0.1010 n3         1 DZA      -0.442600
     10 C06         -3.8080     0.5070     1.0990 c3         1 DZA       0.137100
     11 C05         -3.5290    -0.0420    -1.2370 c3         1 DZA       0.137100
     12 H081         1.4070    -0.4290    -1.4020 hc         1 DZA       0.032200
     13 H082         1.8050    -1.4630    -0.0570 hc         1 DZA       0.032200
     14 H071         1.0330     0.3210     1.5410 hc         1 DZA       0.057700
     15 H072         0.5760     1.3280     0.1880 hc         1 DZA       0.057700
     16 H03         -1.5320     1.3250    -0.0670 hn         1 DZA       0.297500
     17 H061        -3.9110     1.5900     0.9390 h1         1 DZA       0.031867
     18 H062        -4.8050     0.0680     1.0710 h1         1 DZA       0.031867
     19 H063        -3.3930     0.3420     2.0920 h1         1 DZA       0.031867
     20 H051        -2.9010    -0.5900    -1.9370 h1         1 DZA       0.031867
     21 H052        -4.5210    -0.4930    -1.2450 h1         1 DZA       0.031867
     22 H053        -3.6250     0.9950    -1.5910 h1         1 DZA       0.031867
@<TRIPOS>BOND
     1     1     2 1   
     2     2     3 1   
     3     2     4 1   
     4     4     5 1   
     5     4    12 1   
     6     4    13 1   
     7     5     6 1   
     8     5    14 1   
     9     5    15 1   
    10     6     7 2   
    11     6     8 1   
    12     8     9 1   
    13     8    16 1   
    14     9    10 1   
    15     9    11 1   
    16    10    17 1   
    17    10    18 1   
    18    10    19 1   
    19    11    20 1   
    20    11    21 1   
    21    11    22 1   
@<TRIPOS>SUBSTRUCTURE
     1 DZA         1 TEMP              0 ****  ****    0 ROOT
