@<TRIPOS>MOLECULE
DZA
   22    21     1     0     0
SMALL
No Charge or Current Charge


@<TRIPOS>ATOM
      1 O10          3.2140     1.2340    -1.1080 o          1 DZA      -0.739500
      2 C09          3.0690     0.2600    -0.3860 c          1 DZA       0.718000
      3 O11          3.9330    -0.1570     0.3700 o          1 DZA      -0.739500
      4 C08          1.6970    -0.4340    -0.3710 c3         1 DZA      -0.204400
      5 C07          0.7670     0.2180     0.6910 c3         1 DZA      -0.130400
      6 C02         -0.6200    -0.4410     0.7350 c          1 DZA       0.610100
      7 O01         -0.8090    -1.5400     1.2450 o          1 DZA      -0.597100
      8 N03         -1.6460     0.3210     0.1840 ns         1 DZA      -0.415300
      9 N04         -3.0090    -0.1070     0.1360 n3         1 DZA      -0.442600
     10 C06         -3.8870     0.7770     0.9310 c3         1 DZA       0.137100
     11 C05         -3.4630    -0.3270    -1.2520 c3         1 DZA       0.137100
     12 H081         1.1920    -0.2990    -1.3350 hc         1 DZA       0.032200
     13 H082         1.8060    -1.4850    -0.0740 hc         1 DZA       0.032200
     14 H071         1.2360     0.1090     1.6770 hc         1 DZA       0.057700
     15 H072         0.6640     1.2830     0.4510 hc         1 DZA       0.057700
     16 H03         -1.3890     1.2220    -0.2120 hn         1 DZA       0.297500
     17 H061        -3.9000     1.7920     0.5130 h1         1 DZA       0.031867
     18 H062        -4.9160     0.3930     0.9380 h1         1 DZA       0.031867
     19 H063        -3.5380     0.8340     1.9700 h1         1 DZA       0.031867
     20 H051        -2.8140    -1.0520    -1.7600 h1         1 DZA       0.031867
     21 H052        -4.4880    -0.7210    -1.2650 h1         1 DZA       0.031867
     22 H053        -3.4470     0.6110    -1.8220 h1         1 DZA       0.031867
@<TRIPOS>BOND
     1     1     2 1   
     2     2     3 1   
     3     2     4 1   
     4     4     5 1   
     5     4    12 1   
     6     4    13 1   
     7     5     6 1   
     8     5    14 1   
     9     5    15 1   
    10     6     7 2   
    11     6     8 1   
    12     8     9 1   
    13     8    16 1   
    14     9    10 1   
    15     9    11 1   
    16    10    17 1   
    17    10    18 1   
    18    10    19 1   
    19    11    20 1   
    20    11    21 1   
    21    11    22 1   
@<TRIPOS>SUBSTRUCTURE
     1 DZA         1 TEMP              0 ****  ****    0 ROOT
