@<TRIPOS>MOLECULE
DZB
   38    40     1     0     0
SMALL
abcg2


@<TRIPOS>ATOM
      1 C3          -3.0640    -0.4030     0.0870 cc         1 DZB       0.113500
      2 C4          -4.3350    -0.8520    -0.4170 cc         1 DZB       0.549300
      3 N2          -3.1520     0.6620     0.8320 nd         1 DZB      -0.508100
      4 C11          0.6240    -1.1620     0.0610 c3         1 DZB       0.111000
      5 C12          1.6980    -0.2310     0.6230 c3         1 DZB       0.015900
      6 C13          3.0780    -0.8330     0.4570 ca         1 DZB      -0.083300
      7 C14          3.5520    -1.2490    -0.7860 ca         1 DZB      -0.100500
      8 C15          4.8270    -1.7820    -0.9160 ca         1 DZB      -0.107750
      9 C16          5.6510    -1.9070     0.1960 ca         1 DZB      -0.104000
     10 C17          5.1880    -1.4960     1.4380 ca         1 DZB      -0.107750
     11 C18          3.9110    -0.9650     1.5640 ca         1 DZB      -0.100500
     12 C19          1.6300     1.1690     0.0460 ca         1 DZB      -0.083300
     13 C20          1.7540     2.2650     0.8960 ca         1 DZB      -0.100500
     14 C21          1.7250     3.5620     0.3990 ca         1 DZB      -0.107750
     15 C22          1.5650     3.7820    -0.9610 ca         1 DZB      -0.104000
     16 C23          1.4340     2.6960    -1.8180 ca         1 DZB      -0.107750
     17 C24          1.4650     1.4020    -1.3180 ca         1 DZB      -0.100500
     18 C9          -1.7970    -1.1000    -0.2300 c          1 DZB       0.541600
     19 N10         -0.6880    -0.5940     0.2920 ns         1 DZB      -0.461900
     20 N5          -5.3290    -0.1060    -0.0300 nd         1 DZB      -0.574100
     21 O27         -1.8370    -2.0950    -0.9580 o          1 DZB      -0.642100
     22 O7          -4.5110    -1.9030    -1.1920 oh         1 DZB      -0.611300
     23 S6          -4.7230     1.0900     0.9090 ss         1 DZB       0.487200
     24 H2           0.7620    -1.3270    -1.0090 h1         1 DZB       0.061700
     25 H3           0.7060    -2.1360     0.5480 h1         1 DZB       0.061700
     26 H4           1.5180    -0.1450     1.6990 hc         1 DZB       0.058700
     27 H5           2.9310    -1.1630    -1.6690 ha         1 DZB       0.111000
     28 H6           5.1780    -2.1000    -1.8890 ha         1 DZB       0.114500
     29 H7           6.6440    -2.3240     0.0940 ha         1 DZB       0.115000
     30 H8           5.8190    -1.5910     2.3130 ha         1 DZB       0.114500
     31 H9           3.5560    -0.6510     2.5390 ha         1 DZB       0.111000
     32 H10          1.8740     2.1040     1.9610 ha         1 DZB       0.111000
     33 H11          1.8230     4.3990     1.0790 ha         1 DZB       0.114500
     34 H12          1.5360     4.7910    -1.3520 ha         1 DZB       0.115000
     35 H13          1.3050     2.8550    -2.8810 ha         1 DZB       0.114500
     36 H14          1.3590     0.5740    -2.0070 ha         1 DZB       0.111000
     37 H15         -0.7720     0.2150     0.8900 hn         1 DZB       0.346500
     38 H17         -3.6270    -2.3000    -1.3470 ho         1 DZB       0.524000
@<TRIPOS>BOND
     1     1     2 1   
     2     1     3 2   
     3     1    18 1   
     4     2    20 2   
     5     2    22 1   
     6     3    23 1   
     7     4     5 1   
     8     4    19 1   
     9     4    24 1   
    10     4    25 1   
    11     5     6 1   
    12     5    12 1   
    13     5    26 1   
    14     6     7 ar  
    15     6    11 ar  
    16     7     8 ar  
    17     7    27 1   
    18     8     9 ar  
    19     8    28 1   
    20     9    10 ar  
    21     9    29 1   
    22    10    11 ar  
    23    10    30 1   
    24    11    31 1   
    25    12    13 ar  
    26    12    17 ar  
    27    13    14 ar  
    28    13    32 1   
    29    14    15 ar  
    30    14    33 1   
    31    15    16 ar  
    32    15    34 1   
    33    16    17 ar  
    34    16    35 1   
    35    17    36 1   
    36    18    19 1   
    37    18    21 2   
    38    19    37 1   
    39    20    23 1   
    40    22    38 1   
@<TRIPOS>SUBSTRUCTURE
     1 DZB         1 TEMP              0 ****  ****    0 ROOT
