@<TRIPOS>MOLECULE
DZB
   38    40     1     0     0
SMALL
No Charge or Current Charge


@<TRIPOS>ATOM
      1 C3          -2.9860    -0.3230    -0.2270 cc         1 DZB       0.113500
      2 C4          -4.0440    -0.6340     0.6650 cc         1 DZB       0.549300
      3 N2          -3.2780     0.5970    -1.1330 nd         1 DZB      -0.508100
      4 C11          0.6530    -1.0990    -1.0560 c3         1 DZB       0.111000
      5 C12          1.5340    -0.4640     0.0530 c3         1 DZB       0.015900
      6 C13          2.9720    -1.0000     0.0910 ca         1 DZB      -0.083300
      7 C14          3.6710    -1.3720    -1.0800 ca         1 DZB      -0.100500
      8 C15          4.9910    -1.8510    -1.0000 ca         1 DZB      -0.107750
      9 C16          5.6280    -1.9610     0.2460 ca         1 DZB      -0.104000
     10 C17          4.9460    -1.5860     1.4140 ca         1 DZB      -0.107750
     11 C18          3.6270    -1.1070     1.3360 ca         1 DZB      -0.100500
     12 C19          1.5300     1.0650    -0.0200 ca         1 DZB      -0.083300
     13 C20          1.0450     1.8250     1.0640 ca         1 DZB      -0.100500
     14 C21          1.0340     3.2300     1.0020 ca         1 DZB      -0.107750
     15 C22          1.5090     3.8870    -0.1450 ca         1 DZB      -0.104000
     16 C23          1.9970     3.1380    -1.2290 ca         1 DZB      -0.107750
     17 C24          2.0080     1.7340    -1.1670 ca         1 DZB      -0.100500
     18 C9          -1.6790    -1.0190    -0.0900 c          1 DZB       0.541600
     19 N10         -0.7360    -0.6260    -1.0150 ns         1 DZB      -0.461900
     20 N5          -5.1640     0.0110     0.4940 nd         1 DZB      -0.574100
     21 O27         -1.4470    -1.8690     0.7630 o          1 DZB      -0.642100
     22 O7          -3.9300    -1.5450     1.6490 oh         1 DZB      -0.611300
     23 S6          -4.8760     1.0290    -0.8160 ss         1 DZB       0.487200
     24 H2           1.0580    -0.8580    -2.0460 h1         1 DZB       0.061700
     25 H3           0.6610    -2.1920    -0.9470 h1         1 DZB       0.061700
     26 H4           1.0630    -0.7600     0.9980 hc         1 DZB       0.058700
     27 H5           3.2080    -1.2890    -2.0590 ha         1 DZB       0.111000
     28 H6           5.5200    -2.1360    -1.9060 ha         1 DZB       0.114500
     29 H7           6.6490    -2.3310     0.3060 ha         1 DZB       0.115000
     30 H8           5.4380    -1.6650     2.3810 ha         1 DZB       0.114500
     31 H9           3.1120    -0.8150     2.2490 ha         1 DZB       0.111000
     32 H10          0.6740     1.3300     1.9590 ha         1 DZB       0.111000
     33 H11          0.6570     3.8080     1.8420 ha         1 DZB       0.114500
     34 H12          1.5010     4.9730    -0.1930 ha         1 DZB       0.115000
     35 H13          2.3680     3.6450    -2.1170 ha         1 DZB       0.114500
     36 H14          2.3920     1.1670    -2.0120 ha         1 DZB       0.111000
     37 H15         -1.0300     0.0910    -1.6700 hn         1 DZB       0.346500
     38 H17         -3.0000    -1.8770     1.5580 ho         1 DZB       0.524000
@<TRIPOS>BOND
     1     1     2 1   
     2     1     3 2   
     3     1    18 1   
     4     2    20 2   
     5     2    22 1   
     6     3    23 1   
     7     4     5 1   
     8     4    19 1   
     9     4    24 1   
    10     4    25 1   
    11     5     6 1   
    12     5    12 1   
    13     5    26 1   
    14     6     7 ar  
    15     6    11 ar  
    16     7     8 ar  
    17     7    27 1   
    18     8     9 ar  
    19     8    28 1   
    20     9    10 ar  
    21     9    29 1   
    22    10    11 ar  
    23    10    30 1   
    24    11    31 1   
    25    12    13 ar  
    26    12    17 ar  
    27    13    14 ar  
    28    13    32 1   
    29    14    15 ar  
    30    14    33 1   
    31    15    16 ar  
    32    15    34 1   
    33    16    17 ar  
    34    16    35 1   
    35    17    36 1   
    36    18    19 1   
    37    18    21 2   
    38    19    37 1   
    39    20    23 1   
    40    22    38 1   
@<TRIPOS>SUBSTRUCTURE
     1 DZB         1 TEMP              0 ****  ****    0 ROOT
