@<TRIPOS>MOLECULE
DZC
   63    67     1     0     0
SMALL
abcg2


@<TRIPOS>ATOM
      1 CAA         -9.2580    -2.5070    -0.0540 cc         1 DZC       0.290900
      2 CAC        -10.0870    -1.1140     1.5560 cd         1 DZC       0.398900
      3 CAD         -8.8520    -0.4400     1.6340 cd         1 DZC      -0.138000
      4 CAF         -8.0350    -1.9190    -0.0490 cd         1 DZC      -0.151000
      5 CAH         -7.1810     0.8000     2.0350 cc         1 DZC       0.007600
      6 CAI         -6.7520    -0.0850     1.0540 cd         1 DZC      -0.040800
      7 CAJ         -5.5250    -0.2390     0.3970 ch         1 DZC      -0.122300
      8 CAK         -4.4710    -0.3840    -0.1760 cg         1 DZC      -0.085000
      9 CAL         -3.2440    -0.5800    -0.8660 ca         1 DZC       0.017000
     10 CAM         -3.1780    -1.6000    -1.8220 ca         1 DZC      -0.069000
     11 CAN         -2.0050    -1.8380    -2.5100 ca         1 DZC      -0.120000
     12 CAO         -0.8910    -1.0560    -2.2480 ca         1 DZC      -0.079000
     13 CAP         -0.9530    -0.0300    -1.3090 ca         1 DZC      -0.161600
     14 CAQ         -2.1270     0.2280    -0.5940 ca         1 DZC       0.008700
     15 CAR         -2.2030     1.3120     0.4400 c3         1 DZC      -0.059800
     16 CAS          0.2510     0.8440    -1.1330 c          1 DZC       0.621700
     17 CAV          2.7000     0.6170    -0.7430 ca         1 DZC       0.007000
     18 CAW          3.6560    -0.3410    -0.4050 ca         1 DZC      -0.212000
     19 CAX          5.0020    -0.0070    -0.2480 ca         1 DZC       0.326000
     20 CAY          5.3750     1.3270    -0.4620 ca         1 DZC      -0.134000
     21 CAZ          4.4200     2.2640    -0.8100 ca         1 DZC      -0.138300
     22 NAB        -10.2840    -2.1110     0.7430 nc         1 DZC      -0.650000
     23 NAE         -7.8420    -0.8770     0.8070 na         1 DZC       0.163100
     24 NAG         -8.4550     0.5790     2.3820 nc         1 DZC      -0.264600
     25 NAT          1.3900     0.1510    -0.8790 ns         1 DZC      -0.146000
     26 OAU          0.1860     2.0550    -1.2320 o          1 DZC      -0.560100
     27 CBA          3.0760     1.9400    -0.9530 ca         1 DZC      -0.125000
     28 CBB          4.8790     3.6750    -1.0190 c3         1 DZC       0.354300
     29 CBD          7.1900    -1.0050    -0.6320 c6         1 DZC       0.199300
     30 CBE          8.2620    -1.7530     0.1330 c6         1 DZC       0.156800
     31 CBG          6.6040    -2.9810     1.2950 c6         1 DZC       0.156800
     32 CBH          5.5020    -2.2550     0.5480 c6         1 DZC       0.199300
     33 CBI          8.8360    -3.8370     1.1640 c3         1 DZC       0.151100
     34 NBC          5.9540    -0.9400     0.1390 nh         1 DZC      -0.792400
     35 NBF          7.8040    -3.0780     0.4930 n3         1 DZC      -0.715600
     36 FBJ          3.8840     4.5060    -1.3440 f          1 DZC      -0.113000
     37 FBK          5.4590     4.1770     0.0810 f          1 DZC      -0.113000
     38 FBL          5.7910     3.7580    -1.9990 f          1 DZC      -0.113000
     39 H1          -9.4450    -3.3380    -0.7210 h4         1 DZC       0.038100
     40 H2         -10.9000    -0.7920     2.1970 h4         1 DZC       0.051100
     41 H3          -7.2120    -2.2230    -0.6770 h4         1 DZC       0.158000
     42 H4          -6.5870     1.5810     2.4860 h4         1 DZC       0.237000
     43 H5          -4.0550    -2.2040    -2.0150 ha         1 DZC       0.120000
     44 H6          -1.9570    -2.6270    -3.2480 ha         1 DZC       0.123000
     45 H7           0.0260    -1.2340    -2.7960 ha         1 DZC       0.121000
     46 H8          -2.3890     2.2840    -0.0200 hc         1 DZC       0.058700
     47 H9          -3.0100     1.1260     1.1470 hc         1 DZC       0.058700
     48 H10         -1.2800     1.3930     1.0110 hc         1 DZC       0.058700
     49 H11          3.3300    -1.3650    -0.2780 ha         1 DZC       0.114000
     50 H12          6.4060     1.6250    -0.3220 ha         1 DZC       0.133000
     51 H13          1.2780    -0.8430    -0.7420 hn         1 DZC       0.155000
     52 H14          2.3480     2.6870    -1.2160 ha         1 DZC       0.166000
     53 H15          7.5560    -0.0040    -0.8510 h1         1 DZC       0.045950
     54 H16          7.0120    -1.5040    -1.5950 h1         1 DZC       0.045950
     55 H17          9.1460    -1.8370    -0.5030 h1         1 DZC       0.042450
     56 H18          8.5540    -1.1650     1.0210 h1         1 DZC       0.042450
     57 H19          6.7940    -2.4600     2.2500 h1         1 DZC       0.042450
     58 H20          6.2520    -3.9850     1.5420 h1         1 DZC       0.042450
     59 H21          5.1790    -2.8600    -0.3120 h1         1 DZC       0.045950
     60 H22          4.6490    -2.1520     1.2190 h1         1 DZC       0.045950
     61 H23          9.1590    -3.3800     2.1120 h1         1 DZC       0.033700
     62 H24          8.4760    -4.8430     1.3830 h1         1 DZC       0.033700
     63 H25          9.7120    -3.9260     0.5200 h1         1 DZC       0.033700
@<TRIPOS>BOND
     1     1     4 2   
     2     1    22 1   
     3     1    39 1   
     4     2     3 1   
     5     2    22 2   
     6     2    40 1   
     7     3    23 1   
     8     3    24 2   
     9     4    23 1   
    10     4    41 1   
    11     5     6 2   
    12     5    24 1   
    13     5    42 1   
    14     6     7 1   
    15     6    23 1   
    16     7     8 3   
    17     8     9 1   
    18     9    10 ar  
    19     9    14 ar  
    20    10    11 ar  
    21    10    43 1   
    22    11    12 ar  
    23    11    44 1   
    24    12    13 ar  
    25    12    45 1   
    26    13    14 ar  
    27    13    16 1   
    28    14    15 1   
    29    15    46 1   
    30    15    47 1   
    31    15    48 1   
    32    16    25 1   
    33    16    26 2   
    34    17    18 ar  
    35    17    25 1   
    36    17    27 ar  
    37    18    19 ar  
    38    18    49 1   
    39    19    20 ar  
    40    19    34 1   
    41    20    21 ar  
    42    20    50 1   
    43    21    27 ar  
    44    21    28 1   
    45    25    51 1   
    46    27    52 1   
    47    28    36 1   
    48    28    37 1   
    49    28    38 1   
    50    29    30 1   
    51    29    34 1   
    52    29    53 1   
    53    29    54 1   
    54    30    35 1   
    55    30    55 1   
    56    30    56 1   
    57    31    32 1   
    58    31    35 1   
    59    31    57 1   
    60    31    58 1   
    61    32    34 1   
    62    32    59 1   
    63    32    60 1   
    64    33    35 1   
    65    33    61 1   
    66    33    62 1   
    67    33    63 1   
@<TRIPOS>SUBSTRUCTURE
     1 DZC         1 TEMP              0 ****  ****    0 ROOT
