@<TRIPOS>MOLECULE
DZC
   63    67     1     0     0
SMALL
No Charge or Current Charge


@<TRIPOS>ATOM
      1 CAA         -9.5600    -2.5310    -0.0990 cc         1 DZC       0.290900
      2 CAC        -10.7220    -0.6700     0.6970 cd         1 DZC       0.398900
      3 CAD         -9.4810     0.0210     0.7700 cd         1 DZC      -0.138000
      4 CAF         -8.3140    -1.9070    -0.0510 cd         1 DZC      -0.151000
      5 CAH         -7.8450     1.3930     1.0240 cc         1 DZC       0.007600
      6 CAI         -7.2550     0.2380     0.5470 cd         1 DZC      -0.040800
      7 CAJ         -5.8940    -0.0540     0.2640 ch         1 DZC      -0.122300
      8 CAK         -4.7450    -0.3690     0.0010 cg         1 DZC      -0.085000
      9 CAL         -3.3970    -0.7570    -0.3160 ca         1 DZC       0.017000
     10 CAM         -3.1860    -2.0940    -0.6920 ca         1 DZC      -0.069000
     11 CAN         -1.9030    -2.5410    -1.0240 ca         1 DZC      -0.120000
     12 CAO         -0.8220    -1.6530    -0.9960 ca         1 DZC      -0.079000
     13 CAP         -0.9990    -0.2950    -0.6290 ca         1 DZC      -0.161600
     14 CAQ         -2.3060     0.1580    -0.2640 ca         1 DZC       0.008700
     15 CAR         -2.5320     1.6050     0.2110 c3         1 DZC      -0.059800
     16 CAS          0.2080     0.6330    -0.6620 c          1 DZC       0.621700
     17 CAV          2.7610     0.4990    -0.3660 ca         1 DZC       0.007000
     18 CAW          3.7920    -0.4530    -0.2810 ca         1 DZC      -0.212000
     19 CAX          5.1420    -0.0600    -0.2180 ca         1 DZC       0.326000
     20 CAY          5.4530     1.3100    -0.2360 ca         1 DZC      -0.134000
     21 CAZ          4.4400     2.2890    -0.3220 ca         1 DZC      -0.138300
     22 NAB        -10.7700    -1.9350     0.2680 nc         1 DZC      -0.650000
     23 NAE         -8.3370    -0.5960     0.4040 na         1 DZC       0.163100
     24 NAG         -9.2170     1.2590     1.1610 nc         1 DZC      -0.264600
     25 NAT          1.4270     0.0110    -0.4190 ns         1 DZC      -0.146000
     26 OAU          0.1140     1.8200    -0.9510 o          1 DZC      -0.560100
     27 CBA          3.0930     1.8710    -0.3760 ca         1 DZC      -0.125000
     28 CBB          4.7900     3.7840    -0.3200 c3         1 DZC       0.354300
     29 CBD          7.2820    -1.0230    -1.1480 c6         1 DZC       0.199300
     30 CBE          8.5790    -1.7230    -0.6250 c6         1 DZC       0.156800
     31 CBG          7.2720    -3.0370     0.9720 c6         1 DZC       0.156800
     32 CBH          5.9480    -2.3630     0.4820 c6         1 DZC       0.199300
     33 CBI          9.5570    -3.7710     0.3640 c3         1 DZC       0.151100
     34 NBC          6.1810    -1.0160    -0.1310 nh         1 DZC      -0.792400
     35 NBF          8.3220    -3.0960    -0.0900 n3         1 DZC      -0.715600
     36 FBJ          3.9390     4.5090    -1.0810 f          1 DZC      -0.113000
     37 FBK          4.7390     4.2980     0.9290 f          1 DZC      -0.113000
     38 FBL          6.0330     4.0260    -0.7970 f          1 DZC      -0.113000
     39 H1          -9.6600    -3.5530    -0.4380 h4         1 DZC       0.038100
     40 H2         -11.6710    -0.2290     0.9760 h4         1 DZC       0.051100
     41 H3          -7.3710    -2.3570    -0.3320 h4         1 DZC       0.158000
     42 H4          -7.3600     2.3290     1.2810 h4         1 DZC       0.237000
     43 H5          -4.0200    -2.7920    -0.7290 ha         1 DZC       0.120000
     44 H6          -1.7490    -3.5780    -1.3170 ha         1 DZC       0.123000
     45 H7           0.1530    -2.0320    -1.2960 ha         1 DZC       0.121000
     46 H8          -2.6010     2.2900    -0.6420 hc         1 DZC       0.058700
     47 H9          -3.4410     1.7330     0.8080 hc         1 DZC       0.058700
     48 H10         -1.7160     1.9460     0.8570 hc         1 DZC       0.058700
     49 H11          3.5370    -1.5080    -0.2780 ha         1 DZC       0.114000
     50 H12          6.4940     1.6110    -0.1650 ha         1 DZC       0.133000
     51 H13          1.3500    -0.9790    -0.2250 hn         1 DZC       0.155000
     52 H14          2.3150     2.6280    -0.4140 ha         1 DZC       0.166000
     53 H15          7.5420     0.0020    -1.4500 h1         1 DZC       0.045950
     54 H16          6.9410    -1.5470    -2.0520 h1         1 DZC       0.045950
     55 H17          9.3070    -1.7650    -1.4470 h1         1 DZC       0.042450
     56 H18          9.0200    -1.0910     0.1600 h1         1 DZC       0.042450
     57 H19          7.6460    -2.4710     1.8390 h1         1 DZC       0.042450
     58 H20          7.0350    -4.0490     1.3310 h1         1 DZC       0.042450
     59 H21          5.4690    -3.0270    -0.2530 h1         1 DZC       0.045950
     60 H22          5.2670    -2.2780     1.3410 h1         1 DZC       0.045950
     61 H23         10.0220    -3.2230     1.1950 h1         1 DZC       0.033700
     62 H24          9.3370    -4.7920     0.7060 h1         1 DZC       0.033700
     63 H25         10.2860    -3.8380    -0.4540 h1         1 DZC       0.033700
@<TRIPOS>BOND
     1     1     4 2   
     2     1    22 1   
     3     1    39 1   
     4     2     3 1   
     5     2    22 2   
     6     2    40 1   
     7     3    23 1   
     8     3    24 2   
     9     4    23 1   
    10     4    41 1   
    11     5     6 2   
    12     5    24 1   
    13     5    42 1   
    14     6     7 1   
    15     6    23 1   
    16     7     8 3   
    17     8     9 1   
    18     9    10 ar  
    19     9    14 ar  
    20    10    11 ar  
    21    10    43 1   
    22    11    12 ar  
    23    11    44 1   
    24    12    13 ar  
    25    12    45 1   
    26    13    14 ar  
    27    13    16 1   
    28    14    15 1   
    29    15    46 1   
    30    15    47 1   
    31    15    48 1   
    32    16    25 1   
    33    16    26 2   
    34    17    18 ar  
    35    17    25 1   
    36    17    27 ar  
    37    18    19 ar  
    38    18    49 1   
    39    19    20 ar  
    40    19    34 1   
    41    20    21 ar  
    42    20    50 1   
    43    21    27 ar  
    44    21    28 1   
    45    25    51 1   
    46    27    52 1   
    47    28    36 1   
    48    28    37 1   
    49    28    38 1   
    50    29    30 1   
    51    29    34 1   
    52    29    53 1   
    53    29    54 1   
    54    30    35 1   
    55    30    55 1   
    56    30    56 1   
    57    31    32 1   
    58    31    35 1   
    59    31    57 1   
    60    31    58 1   
    61    32    34 1   
    62    32    59 1   
    63    32    60 1   
    64    33    35 1   
    65    33    61 1   
    66    33    62 1   
    67    33    63 1   
@<TRIPOS>SUBSTRUCTURE
     1 DZC         1 TEMP              0 ****  ****    0 ROOT
