@<TRIPOS>MOLECULE
DZD
   75    79     1     0     0
SMALL
No Charge or Current Charge


@<TRIPOS>ATOM
      1 O68          7.2210    25.6510     9.0960 o          1 DZD      -0.680100
      2 C66          8.1200    25.0010     9.6060 c          1 DZD       0.604700
      3 N67          8.9020    24.2310     8.8300 nt         1 DZD      -0.609000
      4 C64          8.4400    25.0550    11.0760 ca         1 DZD      -0.135600
      5 C63          9.7580    24.8560    11.5480 ca         1 DZD      -0.044000
      6 C62         10.0320    24.8930    12.9260 ca         1 DZD      -0.129000
      7 C61          8.9930    25.1000    13.8470 ca         1 DZD      -0.096000
      8 C65          7.4090    25.2870    12.0080 ca         1 DZD      -0.039000
      9 C60          7.6750    25.2870    13.3910 ca         1 DZD      -0.111300
     10 C59          6.5200    25.3790    14.3760 c3         1 DZD       0.239100
     11 N47          5.6940    24.1580    14.3250 n3         1 DZD      -0.730600
     12 C48          4.5000    24.1370    15.1920 c5         1 DZD       0.171800
     13 C49          3.9840    22.6590    15.0440 c5         1 DZD       0.152300
     14 O50          3.5350    22.1130    16.2920 oh         1 DZD      -0.681000
     15 C46          6.3790    22.8970    14.6800 c5         1 DZD       0.176800
     16 C45          5.2280    21.8800    14.4820 c5         1 DZD      -0.103700
     17 C38          5.0630    21.4470    13.0040 c3         1 DZD       0.246600
     18 O35          6.1480    20.5760    12.6610 os         1 DZD      -0.602400
     19 P34          6.2330    19.9780    11.1660 p5         1 DZD       1.438400
     20 O36          4.8860    20.0100    10.5220 o          1 DZD      -0.829000
     21 O37          6.8120    18.6060    11.1400 o          1 DZD      -0.829000
     22 C31          7.1950    21.2340    10.3690 c3         1 DZD      -0.822400
     23 P30          8.8670    20.7660    10.6910 p5         1 DZD       1.465400
     24 O32          9.1200    20.3570    12.1020 o          1 DZD      -0.840500
     25 O33          9.7170    21.9210    10.2820 o          1 DZD      -0.840500
     26 O29          9.0370    19.5540     9.6390 os         1 DZD      -0.581400
     27 C20          9.2680    19.8010     8.2410 c3         1 DZD       0.215600
     28 C17         10.7990    19.9930     7.9720 c5         1 DZD       0.103300
     29 C18         11.1610    20.1870     6.4680 c5         1 DZD       0.156300
     30 O21         12.4930    20.6870     6.2790 oh         1 DZD      -0.698000
     31 C19         11.0770    18.7130     5.9570 c5         1 DZD       0.084300
     32 O20         11.9300    18.5140     4.8100 oh         1 DZD      -0.688000
     33 C15         11.5010    17.8710     7.2240 c5         1 DZD       0.261300
     34 O16         11.5540    18.8050     8.3290 os         1 DZD      -0.463000
     35 N9          10.6280    16.7460     7.5600 na         1 DZD      -0.283300
     36 C3          10.2220    15.7140     6.7530 ca         1 DZD       0.120500
     37 C2           9.4540    14.8740     7.5200 ca         1 DZD      -0.091600
     38 N7           9.3330    15.3140     8.8320 nc         1 DZD      -0.564100
     39 C8          10.0600    16.4500     8.8150 cd         1 DZD       0.440700
     40 C1           8.9080    13.7260     6.9050 ca         1 DZD       0.442900
     41 N10          8.1290    12.8350     7.5740 nv         1 DZD      -1.075900
     42 N6           9.1250    13.4580     5.6090 nb         1 DZD      -0.323000
     43 C5           9.8980    14.3470     4.9410 ca         1 DZD       0.160900
     44 N4          10.4630    15.4680     5.4480 nb         1 DZD      -0.211000
     45 HN67         9.4960    23.5430     9.2850 hn         1 DZD       0.340000
     46 HN6A         8.6940    24.1550     7.8480 hn         1 DZD       0.340000
     47 H63         10.5750    24.6790    10.8520 ha         1 DZD       0.137000
     48 H62         11.0490    24.7410    13.2800 ha         1 DZD       0.106000
     49 H61          9.2080    25.0900    14.9130 ha         1 DZD       0.093000
     50 H65          6.3850    25.4110    11.6620 ha         1 DZD       0.127000
     51 H59          6.9090    25.5320    15.3920 h1         1 DZD       0.018200
     52 H59A         5.9070    26.2550    14.1230 h1         1 DZD       0.018200
     53 H48          4.7670    24.3630    16.2340 h1         1 DZD       0.026200
     54 H48A         3.7470    24.8670    14.8680 h1         1 DZD       0.026200
     55 H49          3.1630    22.6310    14.3140 h1         1 DZD       0.042700
     56 HO50         3.2140    21.2030    16.1050 ho         1 DZD       0.441000
     57 H46          7.2380    22.6790    14.0300 h1         1 DZD       0.047700
     58 H46A         6.7340    22.9080    15.7210 h1         1 DZD       0.047700
     59 H45          5.4200    20.9660    15.0530 hc         1 DZD       0.061700
     60 H38          4.1070    20.9170    12.9030 h1         1 DZD       0.013200
     61 H38A         5.0400    22.3290    12.3500 h1         1 DZD       0.013200
     62 H31          6.9850    21.2560     9.3000 hc         1 DZD       0.062700
     63 H31A         6.9940    22.2090    10.8130 hc         1 DZD       0.062700
     64 H20          8.8800    18.9650     7.6460 h1         1 DZD       0.042700
     65 H20A         8.7410    20.7050     7.9110 h1         1 DZD       0.042700
     66 H17         11.1620    20.8400     8.5670 h1         1 DZD       0.094700
     67 H18         10.4240    20.8280     5.9580 h1         1 DZD       0.150700
     68 HO21        12.8520    20.0820     5.5830 ho         1 DZD       0.487000
     69 H19         10.0360    18.4790     5.6910 h1         1 DZD       0.067700
     70 HO20        11.7350    17.6160     4.4500 ho         1 DZD       0.499000
     71 H15         12.4980    17.4380     7.0770 h2         1 DZD       0.085700
     72 H8          10.2220    17.0980     9.6700 h5         1 DZD       0.095800
     73 HN10         7.7740    13.1340     8.4790 hn         1 DZD       0.500500
     74 HN1A         7.5310    12.2190     7.0300 hn         1 DZD       0.500500
     75 H5          10.0830    14.1390     3.8890 h5         1 DZD       0.031100
@<TRIPOS>BOND
     1     1     2 2   
     2     2     3 1   
     3     2     4 1   
     4     3    45 1   
     5     3    46 1   
     6     4     5 ar  
     7     4     8 ar  
     8     5     6 ar  
     9     5    47 1   
    10     6     7 ar  
    11     6    48 1   
    12     7     9 ar  
    13     7    49 1   
    14     8     9 ar  
    15     8    50 1   
    16     9    10 1   
    17    10    11 1   
    18    10    51 1   
    19    10    52 1   
    20    11    12 1   
    21    11    15 1   
    22    12    13 1   
    23    12    53 1   
    24    12    54 1   
    25    13    14 1   
    26    13    16 1   
    27    13    55 1   
    28    14    56 1   
    29    15    16 1   
    30    15    57 1   
    31    15    58 1   
    32    16    17 1   
    33    16    59 1   
    34    17    18 1   
    35    17    60 1   
    36    17    61 1   
    37    18    19 1   
    38    19    20 1   
    39    19    21 1   
    40    19    22 1   
    41    22    23 1   
    42    22    62 1   
    43    22    63 1   
    44    23    24 1   
    45    23    25 1   
    46    23    26 1   
    47    26    27 1   
    48    27    28 1   
    49    27    64 1   
    50    27    65 1   
    51    28    29 1   
    52    28    34 1   
    53    28    66 1   
    54    29    30 1   
    55    29    31 1   
    56    29    67 1   
    57    30    68 1   
    58    31    32 1   
    59    31    33 1   
    60    31    69 1   
    61    32    70 1   
    62    33    34 1   
    63    33    35 1   
    64    33    71 1   
    65    35    36 1   
    66    35    39 1   
    67    36    37 ar  
    68    36    44 ar  
    69    37    38 1   
    70    37    40 ar  
    71    38    39 2   
    72    39    72 1   
    73    40    41 1   
    74    40    42 ar  
    75    41    73 1   
    76    41    74 1   
    77    42    43 ar  
    78    43    44 ar  
    79    43    75 1   
@<TRIPOS>SUBSTRUCTURE
     1 DZD         1 TEMP              0 ****  ****    0 ROOT
