@<TRIPOS>MOLECULE
DZD
   75    79     1     0     0
SMALL
bcc


@<TRIPOS>ATOM
      1 O68          6.8330    22.5350     7.9700 o          1 DZD      -0.680100
      2 C66          7.8120    22.7560     8.6750 c          1 DZD       0.671700
      3 N67          8.9990    22.1570     8.5180 nt         1 DZD      -0.676000
      4 C64          7.7380    23.7530     9.7900 ca         1 DZD      -0.135600
      5 C63          8.8090    24.5820    10.1200 ca         1 DZD      -0.062000
      6 C62          8.6710    25.5150    11.1350 ca         1 DZD      -0.147000
      7 C61          7.4790    25.6070    11.8450 ca         1 DZD      -0.114000
      8 C65          6.5460    23.8670    10.4920 ca         1 DZD      -0.057000
      9 C60          6.4090    24.7780    11.5340 ca         1 DZD      -0.111300
     10 C59          5.1330    24.7770    12.3350 c3         1 DZD       0.239100
     11 N47          5.0370    23.5430    13.0760 n3         1 DZD      -0.730600
     12 C48          3.7390    23.1980    13.6040 c5         1 DZD       0.171800
     13 C49          4.0360    21.9410    14.4210 c5         1 DZD       0.129100
     14 O50          3.1290    21.8570    15.4930 oh         1 DZD      -0.618800
     15 C46          5.9310    23.4360    14.2110 c5         1 DZD       0.176800
     16 C45          5.5250    22.0980    14.8270 c5         1 DZD      -0.103700
     17 C38          6.3710    20.9590    14.2840 c3         1 DZD       0.223400
     18 O35          7.6880    21.1040    14.7630 os         1 DZD      -0.579200
     19 P34          8.9660    20.3460    14.0220 p5         1 DZD       1.280600
     20 O36          8.4950    19.0150    13.4970 o          1 DZD      -0.829000
     21 O37         10.0700    20.4320    15.0340 o          1 DZD      -0.829000
     22 C31          9.2920    21.4800    12.6070 c3         1 DZD      -0.506800
     23 P30         10.9640    21.3930    11.8640 p5         1 DZD       1.307600
     24 O32         12.0050    21.8880    12.8190 o          1 DZD      -0.840500
     25 O33         10.9240    21.9840    10.4650 o          1 DZD      -0.840500
     26 O29         11.2240    19.7640    11.7140 os         1 DZD      -0.558200
     27 C20         10.5010    19.0090    10.7690 c3         1 DZD       0.192400
     28 C17         11.4700    18.1910     9.9230 c5         1 DZD       0.080100
     29 C18         12.3530    19.0220     8.9870 c5         1 DZD       0.133100
     30 O21         13.6360    18.4880     8.7890 oh         1 DZD      -0.575800
     31 C19         11.4960    19.0510     7.7210 c5         1 DZD       0.061100
     32 O20         12.2360    19.3370     6.5780 oh         1 DZD      -0.565800
     33 C15         10.8710    17.6490     7.7330 c5         1 DZD       0.208800
     34 O16         10.7030    17.3170     9.0830 os         1 DZD      -0.416600
     35 N9           9.6020    17.5620     7.0530 na         1 DZD      -0.254000
     36 C3           9.2970    16.7540     5.9930 ca         1 DZD       0.448800
     37 C2           7.9660    17.0160     5.7080 ca         1 DZD      -0.222200
     38 N7           7.4580    17.9530     6.5710 nc         1 DZD      -0.564100
     39 C8           8.4540    18.2500     7.3490 cd         1 DZD       0.440700
     40 C1           7.4050    16.3030     4.6320 ca         1 DZD       0.771200
     41 N10          6.1370    16.4550     4.2490 nv         1 DZD      -0.965500
     42 N6           8.1880    15.4370     3.9790 nb         1 DZD      -0.849000
     43 C5           9.4510    15.2840     4.3690 ca         1 DZD       0.686900
     44 N4          10.0870    15.8940     5.3540 nb         1 DZD      -0.737000
     45 HN67         9.7190    22.1430     9.2580 hn         1 DZD       0.340000
     46 HN6A         9.0780    21.4700     7.7850 hn         1 DZD       0.340000
     47 H63          9.7420    24.5170     9.5760 ha         1 DZD       0.155000
     48 H62          9.4980    26.1670    11.3830 ha         1 DZD       0.124000
     49 H61          7.3850    26.3210    12.6550 ha         1 DZD       0.111000
     50 H65          5.7140    23.2190    10.2430 ha         1 DZD       0.145000
     51 H59          5.0880    25.6650    12.9870 h1         1 DZD       0.018200
     52 H59A         4.2770    24.8390    11.6570 h1         1 DZD       0.018200
     53 H48          3.3300    23.9750    14.2730 h1         1 DZD       0.026200
     54 H48A         3.0150    23.0310    12.8030 h1         1 DZD       0.026200
     55 H49          3.9350    21.0600    13.7700 h1         1 DZD       0.042700
     56 HO50         3.2810    21.0250    15.9520 ho         1 DZD       0.402000
     57 H46          6.9780    23.4650    13.9020 h1         1 DZD       0.047700
     58 H46A         5.7760    24.2630    14.9240 h1         1 DZD       0.047700
     59 H45          5.6120    22.1200    15.9170 hc         1 DZD       0.061700
     60 H38          5.9460    19.9970    14.5980 h1         1 DZD       0.013200
     61 H38A         6.3280    20.9800    13.1860 h1         1 DZD       0.013200
     62 H31          8.5400    21.3100    11.8310 hc         1 DZD       0.062700
     63 H31A         9.1620    22.5170    12.9340 hc         1 DZD       0.062700
     64 H20          9.8210    18.3300    11.2900 h1         1 DZD       0.042700
     65 H20A         9.8860    19.6390    10.1170 h1         1 DZD       0.042700
     66 H17         12.0930    17.5810    10.5850 h1         1 DZD       0.094700
     67 H18         12.5020    20.0290     9.3780 h1         1 DZD       0.150700
     68 HO21        13.5820    17.5770     8.4840 ho         1 DZD       0.388000
     69 H19         10.7020    19.7910     7.8850 h1         1 DZD       0.067700
     70 HO20        11.6270    19.5210     5.8560 ho         1 DZD       0.400000
     71 H15         11.5300    16.9370     7.2220 h2         1 DZD       0.085700
     72 H8           8.4110    18.9590     8.1630 h5         1 DZD       0.095800
     73 HN10         5.5330    17.1200     4.6990 hn         1 DZD       0.445300
     74 HN1A         5.7830    15.9460     3.4570 hn         1 DZD       0.445300
     75 H5          10.0300    14.5650     3.8000 h5         1 DZD       0.031100
@<TRIPOS>BOND
     1     1     2 2   
     2     2     3 1   
     3     2     4 1   
     4     3    45 1   
     5     3    46 1   
     6     4     5 ar  
     7     4     8 ar  
     8     5     6 ar  
     9     5    47 1   
    10     6     7 ar  
    11     6    48 1   
    12     7     9 ar  
    13     7    49 1   
    14     8     9 ar  
    15     8    50 1   
    16     9    10 1   
    17    10    11 1   
    18    10    51 1   
    19    10    52 1   
    20    11    12 1   
    21    11    15 1   
    22    12    13 1   
    23    12    53 1   
    24    12    54 1   
    25    13    14 1   
    26    13    16 1   
    27    13    55 1   
    28    14    56 1   
    29    15    16 1   
    30    15    57 1   
    31    15    58 1   
    32    16    17 1   
    33    16    59 1   
    34    17    18 1   
    35    17    60 1   
    36    17    61 1   
    37    18    19 1   
    38    19    20 1   
    39    19    21 1   
    40    19    22 1   
    41    22    23 1   
    42    22    62 1   
    43    22    63 1   
    44    23    24 1   
    45    23    25 1   
    46    23    26 1   
    47    26    27 1   
    48    27    28 1   
    49    27    64 1   
    50    27    65 1   
    51    28    29 1   
    52    28    34 1   
    53    28    66 1   
    54    29    30 1   
    55    29    31 1   
    56    29    67 1   
    57    30    68 1   
    58    31    32 1   
    59    31    33 1   
    60    31    69 1   
    61    32    70 1   
    62    33    34 1   
    63    33    35 1   
    64    33    71 1   
    65    35    36 1   
    66    35    39 1   
    67    36    37 ar  
    68    36    44 ar  
    69    37    38 1   
    70    37    40 ar  
    71    38    39 2   
    72    39    72 1   
    73    40    41 1   
    74    40    42 ar  
    75    41    73 1   
    76    41    74 1   
    77    42    43 ar  
    78    43    44 ar  
    79    43    75 1   
@<TRIPOS>SUBSTRUCTURE
     1 DZD         1 TEMP              0 ****  ****    0 ROOT
