@<TRIPOS>MOLECULE
DZE
   36    35     1     0     0
SMALL
abcg2


@<TRIPOS>ATOM
      1 C15         -4.1490     0.4690     0.3600 c3         1 DZE      -0.108767
      2 C14         -3.3700    -0.7940     0.0130 c3         1 DZE       0.226000
      3 C16         -3.3450    -1.7910     1.1650 c3         1 DZE      -0.108767
      4 C17         -3.9780    -1.4510    -1.2200 c3         1 DZE      -0.108767
      5 O13         -2.0190    -0.4760    -0.4200 os         1 DZE      -0.475100
      6 C11         -1.1390     0.1390     0.3640 c          1 DZE       0.658100
      7 O12         -1.3410     0.5270     1.4960 o          1 DZE      -0.541000
      8 N10          0.0520     0.2500    -0.2730 ns         1 DZE      -0.482900
      9 C4           1.1080     1.0580     0.2610 c3         1 DZE       0.023700
     10 C2           0.9330     2.5350    -0.0900 c          1 DZE       0.547100
     11 C1           1.9990     3.4730     0.4000 c3         1 DZE      -0.201100
     12 O3          -0.0280     2.9130    -0.7150 o          1 DZE      -0.502100
     13 C5           2.4580     0.5260    -0.2110 c3         1 DZE      -0.144400
     14 C6           2.7200    -0.8630     0.3190 c          1 DZE       0.593100
     15 O8           3.5170    -1.5470    -0.4850 os         1 DZE      -0.446100
     16 C9           3.9070    -2.8580    -0.0680 c3         1 DZE       0.152900
     17 O7           2.2920    -1.2880     1.3610 o          1 DZE      -0.469000
     18 H15         -3.8020     0.9390     1.2770 hc         1 DZE       0.049700
     19 H15A        -4.0910     1.1960    -0.4510 hc         1 DZE       0.049700
     20 H15B        -5.2010     0.2120     0.4960 hc         1 DZE       0.049700
     21 H16         -4.3630    -2.1100     1.3880 hc         1 DZE       0.049700
     22 H16A        -2.7740    -2.6820     0.8940 hc         1 DZE       0.049700
     23 H16B        -2.9230    -1.3700     2.0740 hc         1 DZE       0.049700
     24 H17         -3.9980    -0.7640    -2.0680 hc         1 DZE       0.049700
     25 H17A        -3.4210    -2.3430    -1.5100 hc         1 DZE       0.049700
     26 H17B        -5.0040    -1.7520    -1.0100 hc         1 DZE       0.049700
     27 HN10         0.0770     0.0440    -1.2600 hn         1 DZE       0.322500
     28 H4           1.0790     0.9980     1.3520 h1         1 DZE       0.118700
     29 H1           2.8220     3.4960    -0.3190 hc         1 DZE       0.064033
     30 H1A          1.6080     4.4840     0.4920 hc         1 DZE       0.064033
     31 H1B          2.4170     3.1560     1.3550 hc         1 DZE       0.064033
     32 H5           2.5290     0.5430    -1.3000 hc         1 DZE       0.078700
     33 H5A          3.2680     1.1610     0.1590 hc         1 DZE       0.078700
     34 H9           4.5740    -3.2290    -0.8400 h1         1 DZE       0.050367
     35 H9A          4.4340    -2.8330     0.8850 h1         1 DZE       0.050367
     36 H9B          3.0450    -3.5190     0.0140 h1         1 DZE       0.050367
@<TRIPOS>BOND
     1     1     2 1   
     2     1    18 1   
     3     1    19 1   
     4     1    20 1   
     5     2     3 1   
     6     2     4 1   
     7     2     5 1   
     8     3    21 1   
     9     3    22 1   
    10     3    23 1   
    11     4    24 1   
    12     4    25 1   
    13     4    26 1   
    14     5     6 1   
    15     6     7 2   
    16     6     8 1   
    17     8     9 1   
    18     8    27 1   
    19     9    10 1   
    20     9    13 1   
    21     9    28 1   
    22    10    11 1   
    23    10    12 2   
    24    11    29 1   
    25    11    30 1   
    26    11    31 1   
    27    13    14 1   
    28    13    32 1   
    29    13    33 1   
    30    14    15 1   
    31    14    17 2   
    32    15    16 1   
    33    16    34 1   
    34    16    35 1   
    35    16    36 1   
@<TRIPOS>SUBSTRUCTURE
     1 DZE         1 TEMP              0 ****  ****    0 ROOT
