@<TRIPOS>MOLECULE
DZE
   36    35     1     0     0
SMALL
No Charge or Current Charge


@<TRIPOS>ATOM
      1 C15         -3.7650    -0.4310     0.8610 c3         1 DZE      -0.108767
      2 C14         -2.8660    -1.1500    -0.1780 c3         1 DZE       0.226000
      3 C16         -2.2530    -2.4700     0.3590 c3         1 DZE      -0.108767
      4 C17         -3.6700    -1.4290    -1.4670 c3         1 DZE      -0.108767
      5 O13         -1.8070    -0.2620    -0.6030 os         1 DZE      -0.475100
      6 C11         -0.8560     0.2130     0.2570 c          1 DZE       0.658100
      7 O12         -0.7770     0.0100     1.4570 o          1 DZE      -0.541000
      8 N10          0.0200     0.9780    -0.4590 ns         1 DZE      -0.482900
      9 C4           1.2310     1.6350     0.0860 c3         1 DZE       0.023700
     10 C2           1.4710     2.9970    -0.6260 c          1 DZE       0.547100
     11 C1           2.2490     4.0540     0.1590 c3         1 DZE      -0.201100
     12 O3           1.0450     3.2340    -1.7520 o          1 DZE      -0.502100
     13 C5           2.4780     0.7100     0.0090 c3         1 DZE      -0.144400
     14 C6           2.3020    -0.5750     0.8180 c          1 DZE       0.593100
     15 O8           1.8990    -1.6260     0.0340 os         1 DZE      -0.446100
     16 C9           1.6590    -2.8920     0.6730 c3         1 DZE       0.152900
     17 O7           2.5080    -0.6470     2.0220 o          1 DZE      -0.469000
     18 H15         -3.2730    -0.3380     1.8350 hc         1 DZE       0.049700
     19 H15A        -4.0370     0.5720     0.5120 hc         1 DZE       0.049700
     20 H15B        -4.6920    -0.9960     1.0200 hc         1 DZE       0.049700
     21 H16         -3.0310    -3.2340     0.4730 hc         1 DZE       0.049700
     22 H16A        -1.4970    -2.8580    -0.3350 hc         1 DZE       0.049700
     23 H16B        -1.7860    -2.3350     1.3400 hc         1 DZE       0.049700
     24 H17         -4.0740    -0.4980    -1.8830 hc         1 DZE       0.049700
     25 H17A        -3.0350    -1.8980    -2.2280 hc         1 DZE       0.049700
     26 H17B        -4.5110    -2.1030    -1.2640 hc         1 DZE       0.049700
     27 HN10        -0.1890     1.0750    -1.4450 hn         1 DZE       0.322500
     28 H4           1.0460     1.8760     1.1420 h1         1 DZE       0.118700
     29 H1           3.2290     3.6510     0.4360 hc         1 DZE       0.064033
     30 H1A          2.3440     5.0000    -0.3860 hc         1 DZE       0.064033
     31 H1B          1.7730     4.1960     1.1360 hc         1 DZE       0.064033
     32 H5           2.6320     0.4520    -1.0460 hc         1 DZE       0.078700
     33 H5A          3.3500     1.2460     0.4000 hc         1 DZE       0.078700
     34 H9           1.3370    -3.6380    -0.0650 h1         1 DZE       0.050367
     35 H9A          2.5700    -3.2660     1.1590 h1         1 DZE       0.050367
     36 H9B          0.8700    -2.8040     1.4320 h1         1 DZE       0.050367
@<TRIPOS>BOND
     1     1     2 1   
     2     1    18 1   
     3     1    19 1   
     4     1    20 1   
     5     2     3 1   
     6     2     4 1   
     7     2     5 1   
     8     3    21 1   
     9     3    22 1   
    10     3    23 1   
    11     4    24 1   
    12     4    25 1   
    13     4    26 1   
    14     5     6 1   
    15     6     7 2   
    16     6     8 1   
    17     8     9 1   
    18     8    27 1   
    19     9    10 1   
    20     9    13 1   
    21     9    28 1   
    22    10    11 1   
    23    10    12 2   
    24    11    29 1   
    25    11    30 1   
    26    11    31 1   
    27    13    14 1   
    28    13    32 1   
    29    13    33 1   
    30    14    15 1   
    31    14    17 2   
    32    15    16 1   
    33    16    34 1   
    34    16    35 1   
    35    16    36 1   
@<TRIPOS>SUBSTRUCTURE
     1 DZE         1 TEMP              0 ****  ****    0 ROOT
