@<TRIPOS>MOLECULE
DZF
   50    52     1     0     0
SMALL
No Charge or Current Charge


@<TRIPOS>ATOM
      1 N1          -1.1660    -0.1930     7.9860 na         1 DZF      -0.903100
      2 C2          -0.1300    -0.3800     8.7920 cc         1 DZF       0.913100
      3 NA2         -0.3990    -0.6510    10.0260 nv         1 DZF      -1.065200
      4 N3           1.0840    -0.2810     8.3990 nd         1 DZF      -0.801100
      5 C4           1.4010     0.0100     7.0880 c          1 DZF       0.743100
      6 O4           2.5720     0.1000     6.7550 o          1 DZF      -0.546100
      7 C4A          0.2900     0.1950     6.1550 ca         1 DZF      -0.270600
      8 C5           0.4820     0.4810     4.7920 ca         1 DZF       0.034000
      9 C6          -0.6600     0.6370     3.9920 ca         1 DZF      -0.180300
     10 C7          -1.9170     0.5040     4.6010 ca         1 DZF       0.394900
     11 N8          -2.0760     0.2300     5.9160 nb         1 DZF      -0.735000
     12 C8A         -0.9880     0.0770     6.6740 ca         1 DZF       0.596900
     13 C9          -0.5460     0.9570     2.5170 c3         1 DZF       0.271100
     14 N10         -0.0930    -0.2330     1.7890 nu         1 DZF      -0.964200
     15 C11          0.6070    -0.6670    -2.3620 ca         1 DZF      -0.142600
     16 C12          0.7030    -1.7670    -1.4810 ca         1 DZF      -0.038500
     17 C13          0.4680    -1.6080    -0.1040 ca         1 DZF      -0.198500
     18 C14          0.1330    -0.3530     0.4190 ca         1 DZF       0.287000
     19 C15          0.0340     0.7490    -0.4450 ca         1 DZF      -0.198500
     20 C16          0.2670     0.5990    -1.8240 ca         1 DZF      -0.038500
     21 O            1.1540    -1.9750    -4.2990 o          1 DZF      -0.639100
     22 N            0.7720     0.2430    -4.6490 ns         1 DZF      -0.422900
     23 CA           0.9450     0.2670    -6.1220 c3         1 DZF      -0.049300
     24 CB          -0.4140     0.2240    -6.8740 c3         1 DZF      -0.056400
     25 CG          -1.2500    -1.0600    -6.6320 c3         1 DZF      -0.200400
     26 CD          -2.5150    -1.0410    -7.5120 c          1 DZF       0.712000
     27 OE1         -3.5230    -0.5140    -7.0660 o          1 DZF      -0.761000
     28 OE2         -2.4430    -1.5090    -8.6380 o          1 DZF      -0.761000
     29 CT           1.7810     1.5150    -6.5410 c          1 DZF       0.719000
     30 O1           2.7800     1.3390    -7.2240 o          1 DZF      -0.743000
     31 O2           1.4610     2.6100    -6.0950 o          1 DZF      -0.743000
     32 HN1         -2.0970    -0.2100     8.3570 hn         1 DZF       0.508000
     33 HN21         0.4340    -0.9280    10.5240 hn         1 DZF       0.506000
     34 HN22        -1.1840    -1.2720    10.1580 hn         1 DZF       0.506000
     35 H5           1.4800     0.5780     4.3660 ha         1 DZF       0.163000
     36 H7          -2.8320     0.6210     4.0200 h4         1 DZF       0.026100
     37 H91         -1.5210     1.2890     2.1300 h1         1 DZF       0.047200
     38 H92          0.1670     1.7820     2.3790 h1         1 DZF       0.047200
     39 HN0         -0.0020    -1.0930     2.3300 hn         1 DZF       0.458000
     40 H12          0.9610    -2.7540    -1.8610 ha         1 DZF       0.132000
     41 H13          0.5470    -2.4680     0.5540 ha         1 DZF       0.095000
     42 H15         -0.2240     1.7310    -0.0600 ha         1 DZF       0.095000
     43 H16          0.1780     1.4780    -2.4570 ha         1 DZF       0.132000
     44 HN           0.5630     1.1200    -4.1910 hn         1 DZF       0.296500
     45 HA           1.5270    -0.6150    -6.4190 h1         1 DZF       0.055700
     46 HB1         -1.0100     1.1020    -6.5940 hc         1 DZF       0.050700
     47 HB2         -0.2140     0.3150    -7.9490 hc         1 DZF       0.050700
     48 HG1         -0.6000    -1.8980    -6.9130 hc         1 DZF       0.008200
     49 HG2         -1.5250    -1.0500    -5.5700 hc         1 DZF       0.008200
     50 C            0.8660    -0.8750    -3.8420 c          1 DZF       0.596700
@<TRIPOS>BOND
     1     1     2 1   
     2     1    12 1   
     3     1    32 1   
     4     2     3 1   
     5     2     4 2   
     6     3    33 1   
     7     3    34 1   
     8     4     5 1   
     9     5     6 2   
    10     5     7 1   
    11     7     8 ar  
    12     7    12 ar  
    13     8     9 ar  
    14     8    35 1   
    15     9    10 ar  
    16     9    13 1   
    17    10    11 ar  
    18    10    36 1   
    19    11    12 ar  
    20    13    14 1   
    21    13    37 1   
    22    13    38 1   
    23    14    18 1   
    24    14    39 1   
    25    15    16 ar  
    26    15    20 ar  
    27    15    50 1   
    28    16    17 ar  
    29    16    40 1   
    30    17    18 ar  
    31    17    41 1   
    32    18    19 ar  
    33    19    20 ar  
    34    19    42 1   
    35    20    43 1   
    36    21    50 2   
    37    22    23 1   
    38    22    44 1   
    39    22    50 1   
    40    23    24 1   
    41    23    29 1   
    42    23    45 1   
    43    24    25 1   
    44    24    46 1   
    45    24    47 1   
    46    25    26 1   
    47    25    48 1   
    48    25    49 1   
    49    26    27 1   
    50    26    28 1   
    51    29    30 1   
    52    29    31 1   
@<TRIPOS>SUBSTRUCTURE
     1 DZF         1 TEMP              0 ****  ****    0 ROOT
