@<TRIPOS>MOLECULE
DZF
   50    52     1     0     0
SMALL
bcc


@<TRIPOS>ATOM
      1 N1          -0.8550    -0.3790     7.9480 na         1 DZF      -0.847900
      2 C2           0.0370     0.3710     8.6440 cc         1 DZF       0.913100
      3 NA2          0.0330     0.2360     9.9680 nv         1 DZF      -0.954800
      4 N3           0.8740     1.2120     8.0850 nd         1 DZF      -0.801100
      5 C4           0.8950     1.3780     6.7380 c          1 DZF       0.743100
      6 O4           1.6660     2.1620     6.2010 o          1 DZF      -0.546100
      7 C4A         -0.0470     0.5730     5.9340 ca         1 DZF      -0.335900
      8 C5          -0.1170     0.6330     4.5510 ca         1 DZF       0.016000
      9 C6          -1.0340    -0.1580     3.8750 ca         1 DZF      -0.245600
     10 C7          -1.8470    -0.9890     4.6410 ca         1 DZF       0.460200
     11 N8          -1.8020    -1.0680     5.9630 nb         1 DZF      -0.735000
     12 C8A         -0.9180    -0.3030     6.5820 ca         1 DZF       0.662200
     13 C9          -1.1270    -0.1450     2.3780 c3         1 DZF       0.271100
     14 N10          0.0690    -0.7270     1.8090 nu         1 DZF      -0.770600
     15 C11          0.7610    -0.9950    -2.3190 ca         1 DZF      -0.142600
     16 C12          1.5380    -1.7020    -1.3970 ca         1 DZF      -0.056500
     17 C13          1.3070    -1.6080    -0.0430 ca         1 DZF      -0.216500
     18 C14          0.2620    -0.8120     0.4580 ca         1 DZF       0.148600
     19 C15         -0.5340    -0.1190    -0.4650 ca         1 DZF      -0.216500
     20 C16         -0.2770    -0.2100    -1.8230 ca         1 DZF      -0.056500
     21 O            1.6500    -2.1520    -4.1820 o          1 DZF      -0.639100
     22 N            0.5620    -0.2220    -4.5940 ns         1 DZF      -0.489900
     23 CA           0.8380    -0.2390    -6.0130 c3         1 DZF      -0.049300
     24 CB          -0.0990     0.7310    -6.7340 c3         1 DZF      -0.056400
     25 CG          -1.5720     0.3930    -6.5690 c3         1 DZF      -0.200400
     26 CD          -2.5520     1.2720    -7.3670 c          1 DZF       0.922600
     27 OE1         -2.0810     2.1960    -8.0580 o          1 DZF      -0.866300
     28 OE2         -3.7620     0.9800    -7.2510 o          1 DZF      -0.866300
     29 CT           2.3140     0.0970    -6.3420 c          1 DZF       0.929600
     30 O1           2.6820    -0.2160    -7.4930 o          1 DZF      -0.848300
     31 O2           2.9860     0.6720    -5.4690 o          1 DZF      -0.848300
     32 HN1         -1.4840    -1.0150     8.4200 hn         1 DZF       0.452800
     33 HN21         0.7240     0.7290    10.5070 hn         1 DZF       0.450800
     34 HN22        -0.5340    -0.4470    10.4400 hn         1 DZF       0.450800
     35 H5           0.5430     1.3000     4.0100 ha         1 DZF       0.181000
     36 H7          -2.5770    -1.6270     4.1530 h4         1 DZF       0.026100
     37 H91         -2.0350    -0.6710     2.0580 h1         1 DZF       0.047200
     38 H92         -1.2250     0.8870     2.0310 h1         1 DZF       0.047200
     39 HN0          0.4690    -1.4810     2.3460 hn         1 DZF       0.402800
     40 H12          2.3440    -2.3320    -1.7500 ha         1 DZF       0.150000
     41 H13          1.9340    -2.1590     0.6480 ha         1 DZF       0.113000
     42 H15         -1.3700     0.4820    -0.1340 ha         1 DZF       0.113000
     43 H16         -0.9370     0.3250    -2.4940 ha         1 DZF       0.150000
     44 HN           0.2920     0.6610    -4.1940 hn         1 DZF       0.296500
     45 HA           0.6310    -1.2470    -6.3820 h1         1 DZF       0.055700
     46 HB1          0.0980     1.7510    -6.3870 hc         1 DZF       0.050700
     47 HB2          0.1660     0.7170    -7.7920 hc         1 DZF       0.050700
     48 HG1         -1.7400    -0.6520    -6.8560 hc         1 DZF       0.008200
     49 HG2         -1.8610     0.4430    -5.5140 hc         1 DZF       0.008200
     50 C            1.0410    -1.1680    -3.7700 c          1 DZF       0.663700
@<TRIPOS>BOND
     1     1     2 1   
     2     1    12 1   
     3     1    32 1   
     4     2     3 1   
     5     2     4 2   
     6     3    33 1   
     7     3    34 1   
     8     4     5 1   
     9     5     6 2   
    10     5     7 1   
    11     7     8 ar  
    12     7    12 ar  
    13     8     9 ar  
    14     8    35 1   
    15     9    10 ar  
    16     9    13 1   
    17    10    11 ar  
    18    10    36 1   
    19    11    12 ar  
    20    13    14 1   
    21    13    37 1   
    22    13    38 1   
    23    14    18 1   
    24    14    39 1   
    25    15    16 ar  
    26    15    20 ar  
    27    15    50 1   
    28    16    17 ar  
    29    16    40 1   
    30    17    18 ar  
    31    17    41 1   
    32    18    19 ar  
    33    19    20 ar  
    34    19    42 1   
    35    20    43 1   
    36    21    50 2   
    37    22    23 1   
    38    22    44 1   
    39    22    50 1   
    40    23    24 1   
    41    23    29 1   
    42    23    45 1   
    43    24    25 1   
    44    24    46 1   
    45    24    47 1   
    46    25    26 1   
    47    25    48 1   
    48    25    49 1   
    49    26    27 1   
    50    26    28 1   
    51    29    30 1   
    52    29    31 1   
@<TRIPOS>SUBSTRUCTURE
     1 DZF         1 TEMP              0 ****  ****    0 ROOT
