@<TRIPOS>MOLECULE
DZG
   52    55     1     0     0
SMALL
abcg2


@<TRIPOS>ATOM
      1 CAA         -2.4890    -4.4420     1.6380 c3         1 DZG       0.146900
      2 OAS         -2.4790    -3.9110     0.3240 os         1 DZG      -0.336100
      3 CAV         -2.5300    -2.5870     0.1620 ca         1 DZG       0.205100
      4 CAG         -2.7040    -1.6730     1.2030 ca         1 DZG      -0.201000
      5 CAI         -2.7710    -0.3180     0.9250 ca         1 DZG       0.027000
      6 CAF         -2.4160    -2.1210    -1.1520 ca         1 DZG      -0.201000
      7 CAH         -2.4690    -0.7710    -1.4240 ca         1 DZG       0.027000
      8 CAW         -2.6490     0.1350    -0.3820 ca         1 DZG      -0.358500
      9 SBC         -2.6870     1.8650    -0.7140 sy         1 DZG       1.152600
     10 OAB         -2.9400     2.0520    -2.1330 o          1 DZG      -0.532500
     11 OAC         -3.5550     2.5040     0.2610 o          1 DZG      -0.532500
     12 NBA         -1.1530     2.4410    -0.4280 n3         1 DZG      -0.694500
     13 CAP         -0.1110     1.9330    -1.3230 c6         1 DZG       0.151300
     14 CAR          1.1300     2.8020    -1.1850 c6         1 DZG       0.205300
     15 CAO         -0.7300     2.4670     0.9730 c6         1 DZG       0.151300
     16 CAQ          0.5160     3.3260     1.1020 c6         1 DZG       0.205300
     17 NBB          1.5800     2.9090     0.1980 n3         1 DZG      -0.734500
     18 SBD          2.8100     1.9430     0.7210 sy         1 DZG       1.170600
     19 OAD          3.8750     2.0650    -0.2610 o          1 DZG      -0.532500
     20 OAE          3.0600     2.3040     2.1060 o          1 DZG      -0.532500
     21 CAX          2.2430     0.2700     0.6800 ca         1 DZG      -0.315500
     22 CAL          2.4790    -0.4960    -0.4520 ca         1 DZG      -0.012000
     23 CAZ          1.9660    -1.7810    -0.5260 ca         1 DZG       0.029100
     24 OAU          2.2260    -2.5180    -1.6260 os         1 DZG      -0.325100
     25 CAN          2.0380    -3.9150    -1.4420 c6         1 DZG       0.115600
     26 CAM          0.7150    -4.1670    -0.7640 c6         1 DZG       0.117600
     27 OAT          0.6810    -3.5250     0.5040 os         1 DZG      -0.327100
     28 CAY          1.2090    -2.2920     0.5390 ca         1 DZG       0.118100
     29 CAK          1.0080    -1.5160     1.6750 ca         1 DZG      -0.139000
     30 CAJ          1.5290    -0.2390     1.7580 ca         1 DZG      -0.016000
     31 HAA         -2.4050    -5.5200     1.5330 h1         1 DZG       0.048367
     32 HAAA        -1.6430    -4.0770     2.2230 h1         1 DZG       0.048367
     33 HAAB        -3.4180    -4.2080     2.1620 h1         1 DZG       0.048367
     34 HAG         -2.8040    -1.9950     2.2300 ha         1 DZG       0.127000
     35 HAI         -2.9300     0.3730     1.7430 ha         1 DZG       0.134500
     36 HAF         -2.2990    -2.8320    -1.9600 ha         1 DZG       0.127000
     37 HAH         -2.3850    -0.4340    -2.4480 ha         1 DZG       0.134500
     38 HAP          0.1280     0.8860    -1.0960 h1         1 DZG       0.064450
     39 HAPA        -0.4510     1.9900    -2.3550 h1         1 DZG       0.064450
     40 HAR          1.9240     2.4130    -1.8200 h1         1 DZG       0.081950
     41 HARA         0.9070     3.8130    -1.5350 h1         1 DZG       0.081950
     42 HAO         -1.5120     2.9090     1.5860 h1         1 DZG       0.064450
     43 HAOA        -0.5350     1.4540     1.3470 h1         1 DZG       0.064450
     44 HAQ          0.2710     4.3600     0.8500 h1         1 DZG       0.081950
     45 HAQA         0.8640     3.3180     2.1320 h1         1 DZG       0.081950
     46 HAL          3.0620    -0.1190    -1.2830 ha         1 DZG       0.153000
     47 HAN          2.0530    -4.3740    -2.4280 h1         1 DZG       0.073700
     48 HANA         2.8620    -4.3290    -0.8520 h1         1 DZG       0.073700
     49 HAM         -0.1040    -3.8000    -1.3880 h1         1 DZG       0.074700
     50 HAMA         0.5660    -5.2310    -0.5890 h1         1 DZG       0.074700
     51 HAK          0.4430    -1.9300     2.5000 ha         1 DZG       0.129000
     52 HAJ          1.3710     0.3430     2.6560 ha         1 DZG       0.137000
@<TRIPOS>BOND
     1     1     2 1   
     2     1    31 1   
     3     1    32 1   
     4     1    33 1   
     5     2     3 1   
     6     3     4 ar  
     7     3     6 ar  
     8     4     5 ar  
     9     4    34 1   
    10     5     8 ar  
    11     5    35 1   
    12     6     7 ar  
    13     6    36 1   
    14     7     8 ar  
    15     7    37 1   
    16     8     9 1   
    17     9    10 2   
    18     9    11 2   
    19     9    12 1   
    20    12    13 1   
    21    12    15 1   
    22    13    14 1   
    23    13    38 1   
    24    13    39 1   
    25    14    17 1   
    26    14    40 1   
    27    14    41 1   
    28    15    16 1   
    29    15    42 1   
    30    15    43 1   
    31    16    17 1   
    32    16    44 1   
    33    16    45 1   
    34    17    18 1   
    35    18    19 2   
    36    18    20 2   
    37    18    21 1   
    38    21    22 ar  
    39    21    30 ar  
    40    22    23 ar  
    41    22    46 1   
    42    23    24 1   
    43    23    28 ar  
    44    24    25 1   
    45    25    26 1   
    46    25    47 1   
    47    25    48 1   
    48    26    27 1   
    49    26    49 1   
    50    26    50 1   
    51    27    28 1   
    52    28    29 ar  
    53    29    30 ar  
    54    29    51 1   
    55    30    52 1   
@<TRIPOS>SUBSTRUCTURE
     1 DZG         1 TEMP              0 ****  ****    0 ROOT
