@<TRIPOS>MOLECULE
DZG
   52    55     1     0     0
SMALL
No Charge or Current Charge


@<TRIPOS>ATOM
      1 CAA         -2.6230    -4.8780     0.2080 c3         1 DZG       0.146900
      2 OAS         -2.9800    -3.8600    -0.7430 os         1 DZG      -0.336100
      3 CAV         -2.9240    -2.5150    -0.4360 ca         1 DZG       0.205100
      4 CAG         -2.4150    -2.0370     0.7890 ca         1 DZG      -0.201000
      5 CAI         -2.3900    -0.6570     1.0500 ca         1 DZG       0.027000
      6 CAF         -3.4020    -1.6050    -1.3910 ca         1 DZG      -0.201000
      7 CAH         -3.3830    -0.2240    -1.1350 ca         1 DZG       0.027000
      8 CAW         -2.8720     0.2520     0.0880 ca         1 DZG      -0.358500
      9 SBC         -2.8290     2.0240     0.4240 sy         1 DZG       1.152600
     10 OAB         -3.8050     2.7080    -0.4320 o          1 DZG      -0.532500
     11 OAC         -2.8250     2.1840     1.8820 o          1 DZG      -0.532500
     12 NBA         -1.2800     2.5020    -0.1290 n3         1 DZG      -0.694500
     13 CAP         -0.4250     1.4550    -0.7670 c6         1 DZG       0.151300
     14 CAR          0.9040     2.0270    -1.3540 c6         1 DZG       0.205300
     15 CAO         -0.5030     3.3690     0.8080 c6         1 DZG       0.151300
     16 CAQ          0.7820     3.9500     0.1470 c6         1 DZG       0.205300
     17 NBB          1.6630     2.8740    -0.3890 n3         1 DZG      -0.734500
     18 SBD          2.7600     2.1340     0.7030 sy         1 DZG       1.170600
     19 OAD          4.0810     2.2390     0.0750 o          1 DZG      -0.532500
     20 OAE          2.4930     2.7130     2.0250 o          1 DZG      -0.532500
     21 CAX          2.2510     0.4030     0.7680 ca         1 DZG      -0.315500
     22 CAL          2.7280    -0.5110    -0.1980 ca         1 DZG      -0.012000
     23 CAZ          2.3210    -1.8540    -0.1580 ca         1 DZG       0.029100
     24 OAU          2.7920    -2.7340    -1.1150 os         1 DZG      -0.325100
     25 CAN          2.6040    -4.1450    -0.8710 c6         1 DZG       0.115600
     26 CAM          1.1890    -4.3950    -0.3070 c6         1 DZG       0.117600
     27 OAT          0.9890    -3.6000     0.8830 os         1 DZG      -0.327100
     28 CAY          1.4300    -2.2920     0.8520 ca         1 DZG       0.118100
     29 CAK          0.9920    -1.3960     1.8380 ca         1 DZG      -0.139000
     30 CAJ          1.4000    -0.0520     1.8020 ca         1 DZG      -0.016000
     31 HAA         -2.7510    -5.8740    -0.2350 h1         1 DZG       0.048367
     32 HAAA        -1.5760    -4.7770     0.5170 h1         1 DZG       0.048367
     33 HAAB        -3.2600    -4.8180     1.1000 h1         1 DZG       0.048367
     34 HAG         -2.0340    -2.7150     1.5450 ha         1 DZG       0.127000
     35 HAI         -1.9890    -0.3010     1.9990 ha         1 DZG       0.134500
     36 HAF         -3.7940    -1.9740    -2.3350 ha         1 DZG       0.127000
     37 HAH         -3.7590     0.4670    -1.8890 ha         1 DZG       0.134500
     38 HAP         -0.1960     0.6600    -0.0490 h1         1 DZG       0.064450
     39 HAPA        -0.9650     0.9770    -1.5970 h1         1 DZG       0.064450
     40 HAR          1.5200     1.2130    -1.7600 h1         1 DZG       0.081950
     41 HARA         0.6270     2.6440    -2.2210 h1         1 DZG       0.081950
     42 HAO         -1.1220     4.2130     1.1480 h1         1 DZG       0.064450
     43 HAOA        -0.2170     2.8010     1.7050 h1         1 DZG       0.064450
     44 HAQ          0.4630     4.6070    -0.6750 h1         1 DZG       0.081950
     45 HAQA         1.3120     4.5970     0.8620 h1         1 DZG       0.081950
     46 HAL          3.4090    -0.1850    -0.9830 ha         1 DZG       0.153000
     47 HAN          2.7530    -4.7000    -1.8080 h1         1 DZG       0.073700
     48 HANA         3.3540    -4.4860    -0.1440 h1         1 DZG       0.073700
     49 HAM          0.4390    -4.1090    -1.0580 h1         1 DZG       0.074700
     50 HAMA         1.0490    -5.4570    -0.0640 h1         1 DZG       0.074700
     51 HAK          0.3240    -1.7400     2.6230 ha         1 DZG       0.129000
     52 HAJ          1.0380     0.6340     2.5670 ha         1 DZG       0.137000
@<TRIPOS>BOND
     1     1     2 1   
     2     1    31 1   
     3     1    32 1   
     4     1    33 1   
     5     2     3 1   
     6     3     4 ar  
     7     3     6 ar  
     8     4     5 ar  
     9     4    34 1   
    10     5     8 ar  
    11     5    35 1   
    12     6     7 ar  
    13     6    36 1   
    14     7     8 ar  
    15     7    37 1   
    16     8     9 1   
    17     9    10 2   
    18     9    11 2   
    19     9    12 1   
    20    12    13 1   
    21    12    15 1   
    22    13    14 1   
    23    13    38 1   
    24    13    39 1   
    25    14    17 1   
    26    14    40 1   
    27    14    41 1   
    28    15    16 1   
    29    15    42 1   
    30    15    43 1   
    31    16    17 1   
    32    16    44 1   
    33    16    45 1   
    34    17    18 1   
    35    18    19 2   
    36    18    20 2   
    37    18    21 1   
    38    21    22 ar  
    39    21    30 ar  
    40    22    23 ar  
    41    22    46 1   
    42    23    24 1   
    43    23    28 ar  
    44    24    25 1   
    45    25    26 1   
    46    25    47 1   
    47    25    48 1   
    48    26    27 1   
    49    26    49 1   
    50    26    50 1   
    51    27    28 1   
    52    28    29 ar  
    53    29    30 ar  
    54    29    51 1   
    55    30    52 1   
@<TRIPOS>SUBSTRUCTURE
     1 DZG         1 TEMP              0 ****  ****    0 ROOT
