@<TRIPOS>MOLECULE
DZH
   63    67     1     0     0
SMALL
No Charge or Current Charge


@<TRIPOS>ATOM
      1 C4          55.9060     1.7350     1.3140 c          1 DZH       0.566000
      2 C14         51.9940     0.6680     4.8350 ca         1 DZH      -0.093500
      3 C5          55.3470    -0.2270     2.7730 ca         1 DZH       0.036000
      4 C6          54.0340    -0.4780     2.2990 ca         1 DZH      -0.126300
      5 C11         51.9990    -2.9490     6.1310 c3         1 DZH       0.252100
      6 C7          55.9930    -1.1750     3.5840 ca         1 DZH      -0.157000
      7 C8          55.3540    -2.3780     3.9260 ca         1 DZH       0.000000
      8 C9          54.0420    -2.6250     3.4790 ca         1 DZH      -0.331500
      9 C10         53.3920    -1.6790     2.6600 ca         1 DZH       0.015000
     10 C12         52.4010    -1.4990     5.8850 ca         1 DZH      -0.129300
     11 C13         51.5900    -0.6510     5.1060 ca         1 DZH      -0.095500
     12 N1          56.0310     0.9700     2.4530 ns         1 DZH      -0.183000
     13 N2          53.0200    -3.8890     5.6270 n7         1 DZH      -0.877300
     14 C3          55.4000     0.9790     0.0790 c3         1 DZH      -0.159400
     15 N3          54.4780     3.2520     6.0120 n          1 DZH      -0.365300
     16 C1          53.2580     0.5640     1.4820 c3         1 DZH      -0.031100
     17 C2          53.8590     0.8660     0.0860 c3         1 DZH      -0.062400
     18 O1          56.2000     2.9230     1.2840 o          1 DZH      -0.555000
     19 S1          53.1790    -4.1190     3.9790 sy         1 DZH       1.183600
     20 O2          51.8230    -4.1370     3.4240 o          1 DZH      -0.543500
     21 O3          54.0730    -5.2720     3.8580 o          1 DZH      -0.543500
     22 C15         53.2150     1.1590     5.3350 ca         1 DZH      -0.089300
     23 C16         54.0130     0.3190     6.1380 ca         1 DZH      -0.093500
     24 C17         53.6030    -0.9940     6.4220 ca         1 DZH      -0.095500
     25 C18         53.6700     2.5730     4.9720 c3         1 DZH       0.160300
     26 C19         53.8190     3.8810     7.0790 c          1 DZH       0.623000
     27 C20         55.8560     3.2640     5.9630 cc         1 DZH       0.443900
     28 C21         56.5930     3.8680     6.9200 cd         1 DZH      -0.344600
     29 C22         55.9670     4.5430     8.0580 c          1 DZH       0.636600
     30 N4          54.6110     4.4770     8.0160 ns         1 DZH      -0.471500
     31 N5          56.6290     2.6890     5.0020 nc         1 DZH      -0.739000
     32 C23         57.8850     2.9420     5.3610 cd         1 DZH       0.457400
     33 N6          57.9150     3.6710     6.5460 na         1 DZH      -0.114500
     34 O4          56.5670     5.1080     8.9560 o          1 DZH      -0.533000
     35 O5          52.6050     3.9130     7.1880 o          1 DZH      -0.543000
     36 C24         59.1210     4.1220     7.2590 c3         1 DZH       0.076600
     37 C25         59.5340     3.1670     8.3940 c3         1 DZH      -0.113100
     38 H1          51.3650     1.3000     4.2130 ha         1 DZH       0.117000
     39 H2          51.0120    -3.1530     5.6910 h1         1 DZH       0.078200
     40 H3          51.8840    -3.0780     7.2170 h1         1 DZH       0.078200
     41 H4          57.0000    -0.9830     3.9460 ha         1 DZH       0.121000
     42 H5          55.8760    -3.1020     4.5500 ha         1 DZH       0.129000
     43 H6          52.3730    -1.8610     2.3220 ha         1 DZH       0.137000
     44 H7          50.6550    -1.0200     4.6890 ha         1 DZH       0.112500
     45 H8          56.4670     1.4370     3.2410 hn         1 DZH       0.198000
     46 H9          53.9250    -3.4870     5.8470 hn         1 DZH       0.480000
     47 H10         55.7300     1.4810    -0.8380 hc         1 DZH       0.070700
     48 H11         55.7830    -0.0490     0.1070 hc         1 DZH       0.070700
     49 H12         53.2080     1.5010     2.0510 hc         1 DZH       0.052200
     50 H13         52.2130     0.2570     1.3490 hc         1 DZH       0.052200
     51 H14         53.4220     1.8000    -0.2890 hc         1 DZH       0.052700
     52 H15         53.5590     0.0770    -0.6160 hc         1 DZH       0.052700
     53 H16         54.9620     0.6690     6.5340 ha         1 DZH       0.117000
     54 H17         54.2370    -1.6240     7.0410 ha         1 DZH       0.112500
     55 H18         54.2450     2.5250     4.0390 h1         1 DZH       0.086200
     56 H19         52.7880     3.1890     4.7510 h1         1 DZH       0.086200
     57 H20         54.1270     4.9260     8.7770 hn         1 DZH       0.348500
     58 H21         58.7880     2.6410     4.8420 h5         1 DZH       0.069100
     59 H22         59.9460     4.2090     6.5390 h1         1 DZH       0.073700
     60 H23         58.9360     5.1230     7.6700 h1         1 DZH       0.073700
     61 H24         60.4330     3.5400     8.8980 hc         1 DZH       0.056033
     62 H25         58.7330     3.0820     9.1390 hc         1 DZH       0.056033
     63 H26         59.7490     2.1670     8.0000 hc         1 DZH       0.056033
@<TRIPOS>BOND
     1     1    12 1   
     2     1    14 1   
     3     1    18 2   
     4     2    11 ar  
     5     2    22 ar  
     6     2    38 1   
     7     3     4 ar  
     8     3     6 ar  
     9     3    12 1   
    10     4     9 ar  
    11     4    16 1   
    12     5    10 1   
    13     5    13 1   
    14     5    39 1   
    15     5    40 1   
    16     6     7 ar  
    17     6    41 1   
    18     7     8 ar  
    19     7    42 1   
    20     8     9 ar  
    21     8    19 1   
    22     9    43 1   
    23    10    11 ar  
    24    10    24 ar  
    25    11    44 1   
    26    12    45 1   
    27    13    19 1   
    28    13    46 1   
    29    14    17 1   
    30    14    47 1   
    31    14    48 1   
    32    15    25 1   
    33    15    26 1   
    34    15    27 1   
    35    16    17 1   
    36    16    49 1   
    37    16    50 1   
    38    17    51 1   
    39    17    52 1   
    40    19    20 2   
    41    19    21 2   
    42    22    23 ar  
    43    22    25 1   
    44    23    24 ar  
    45    23    53 1   
    46    24    54 1   
    47    25    55 1   
    48    25    56 1   
    49    26    30 1   
    50    26    35 2   
    51    27    28 2   
    52    27    31 1   
    53    28    29 1   
    54    28    33 1   
    55    29    30 1   
    56    29    34 2   
    57    30    57 1   
    58    31    32 2   
    59    32    33 1   
    60    32    58 1   
    61    33    36 1   
    62    36    37 1   
    63    36    59 1   
    64    36    60 1   
    65    37    61 1   
    66    37    62 1   
    67    37    63 1   
@<TRIPOS>SUBSTRUCTURE
     1 DZH         1 TEMP              0 ****  ****    0 ROOT
