@<TRIPOS>MOLECULE
DZH
   63    67     1     0     0
SMALL
abcg2


@<TRIPOS>ATOM
      1 C4          55.6730     1.8290     1.2400 c          1 DZH       0.566000
      2 C14         51.9210     0.8980     4.7410 ca         1 DZH      -0.093500
      3 C5          55.3000    -0.0500     2.7990 ca         1 DZH       0.036000
      4 C6          54.0860    -0.5550     2.3070 ca         1 DZH      -0.126300
      5 C11         51.9790    -2.7540     5.8160 c3         1 DZH       0.252100
      6 C7          56.0800    -0.8020     3.6790 ca         1 DZH      -0.157000
      7 C8          55.6600    -2.0530     4.0950 ca         1 DZH       0.000000
      8 C9          54.4590    -2.5570     3.6040 ca         1 DZH      -0.331500
      9 C10         53.6870    -1.8210     2.7130 ca         1 DZH       0.015000
     10 C12         52.3380    -1.2880     5.6910 ca         1 DZH      -0.129300
     11 C13         51.5720    -0.4370     4.8960 ca         1 DZH      -0.095500
     12 N1          55.7150     1.2540     2.4730 ns         1 DZH      -0.183000
     13 N2          53.1070    -3.6940     5.7170 n7         1 DZH      -0.877300
     14 C3          55.2740     0.9290     0.0920 c3         1 DZH      -0.159400
     15 N3          54.3810     3.3930     6.0800 n          1 DZH      -0.365300
     16 C1          53.1980     0.3080     1.4550 c3         1 DZH      -0.031100
     17 C2          53.7680     0.6130     0.0630 c3         1 DZH      -0.062400
     18 O1          55.9800     3.0110     1.0850 o          1 DZH      -0.555000
     19 S1          53.8030    -4.0530     4.2740 sy         1 DZH       1.183600
     20 O2          52.7510    -4.5050     3.3950 o          1 DZH      -0.543500
     21 O3          54.8990    -4.9400     4.5920 o          1 DZH      -0.543500
     22 C15         53.0570     1.4110     5.3620 ca         1 DZH      -0.089300
     23 C16         53.8040     0.5710     6.1820 ca         1 DZH      -0.093500
     24 C17         53.4430    -0.7580     6.3510 ca         1 DZH      -0.095500
     25 C18         53.4830     2.8330     5.0710 c3         1 DZH       0.160300
     26 C19         53.8420     3.9500     7.2230 c          1 DZH       0.623000
     27 C20         55.7470     3.2960     5.9610 cc         1 DZH       0.443900
     28 C21         56.6140     3.7520     6.9360 cd         1 DZH      -0.344600
     29 C22         56.1510     4.3710     8.1360 c          1 DZH       0.636600
     30 N4          54.7530     4.4160     8.1580 ns         1 DZH      -0.471500
     31 N5          56.4290     2.7540     4.9230 nc         1 DZH      -0.739000
     32 C23         57.7140     2.8790     5.2630 cd         1 DZH       0.457400
     33 N6          57.8840     3.4740     6.4550 na         1 DZH      -0.114500
     34 O4          56.8100     4.8230     9.0650 o          1 DZH      -0.533000
     35 O5          52.6370     4.0370     7.4100 o          1 DZH      -0.543000
     36 C24         59.1600     3.6840     7.1460 c3         1 DZH       0.076600
     37 C25         59.3860     2.6570     8.2460 c3         1 DZH      -0.113100
     38 H1          51.3210     1.5390     4.1050 ha         1 DZH       0.117000
     39 H2          51.2500    -3.0270     5.0550 h1         1 DZH       0.078200
     40 H3          51.5170    -2.9500     6.7860 h1         1 DZH       0.078200
     41 H4          57.0080    -0.3860     4.0490 ha         1 DZH       0.121000
     42 H5          56.2500    -2.6240     4.7980 ha         1 DZH       0.129000
     43 H6          52.7390    -2.2140     2.3740 ha         1 DZH       0.137000
     44 H7          50.7080    -0.8290     4.3720 ha         1 DZH       0.112500
     45 H8          56.0480     1.8370     3.2480 hn         1 DZH       0.198000
     46 H9          53.8040    -3.6110     6.4480 hn         1 DZH       0.480000
     47 H10         55.5780     1.4150    -0.8330 hc         1 DZH       0.070700
     48 H11         55.8320    -0.0060     0.1830 hc         1 DZH       0.070700
     49 H12         53.0490     1.2530     1.9870 hc         1 DZH       0.052200
     50 H13         52.2180    -0.1590     1.3610 hc         1 DZH       0.052200
     51 H14         53.2190     1.4550    -0.3630 hc         1 DZH       0.052700
     52 H15         53.6150    -0.2410    -0.6000 hc         1 DZH       0.052700
     53 H16         54.6870     0.9410     6.6860 ha         1 DZH       0.117000
     54 H17         54.0570    -1.3910     6.9800 ha         1 DZH       0.112500
     55 H18         54.0090     2.8770     4.1180 h1         1 DZH       0.086200
     56 H19         52.6140     3.4830     5.0020 h1         1 DZH       0.086200
     57 H20         54.3360     4.8290     8.9820 hn         1 DZH       0.348500
     58 H21         58.5460     2.5460     4.6620 h5         1 DZH       0.069100
     59 H22         59.9360     3.6220     6.3850 h1         1 DZH       0.073700
     60 H23         59.1560     4.6960     7.5480 h1         1 DZH       0.073700
     61 H24         60.3510     2.8420     8.7210 hc         1 DZH       0.056033
     62 H25         58.6100     2.7260     9.0080 hc         1 DZH       0.056033
     63 H26         59.3900     1.6470     7.8330 hc         1 DZH       0.056033
@<TRIPOS>BOND
     1     1    12 1   
     2     1    14 1   
     3     1    18 2   
     4     2    11 ar  
     5     2    22 ar  
     6     2    38 1   
     7     3     4 ar  
     8     3     6 ar  
     9     3    12 1   
    10     4     9 ar  
    11     4    16 1   
    12     5    10 1   
    13     5    13 1   
    14     5    39 1   
    15     5    40 1   
    16     6     7 ar  
    17     6    41 1   
    18     7     8 ar  
    19     7    42 1   
    20     8     9 ar  
    21     8    19 1   
    22     9    43 1   
    23    10    11 ar  
    24    10    24 ar  
    25    11    44 1   
    26    12    45 1   
    27    13    19 1   
    28    13    46 1   
    29    14    17 1   
    30    14    47 1   
    31    14    48 1   
    32    15    25 1   
    33    15    26 1   
    34    15    27 1   
    35    16    17 1   
    36    16    49 1   
    37    16    50 1   
    38    17    51 1   
    39    17    52 1   
    40    19    20 2   
    41    19    21 2   
    42    22    23 ar  
    43    22    25 1   
    44    23    24 ar  
    45    23    53 1   
    46    24    54 1   
    47    25    55 1   
    48    25    56 1   
    49    26    30 1   
    50    26    35 2   
    51    27    28 2   
    52    27    31 1   
    53    28    29 1   
    54    28    33 1   
    55    29    30 1   
    56    29    34 2   
    57    30    57 1   
    58    31    32 2   
    59    32    33 1   
    60    32    58 1   
    61    33    36 1   
    62    36    37 1   
    63    36    59 1   
    64    36    60 1   
    65    37    61 1   
    66    37    62 1   
    67    37    63 1   
@<TRIPOS>SUBSTRUCTURE
     1 DZH         1 TEMP              0 ****  ****    0 ROOT
