@<TRIPOS>MOLECULE
DZI
   30    31     1     0     0
SMALL
No Charge or Current Charge


@<TRIPOS>ATOM
      1 C11         70.5100    28.8210   -30.7930 ca         1 DZI      -0.117600
      2 C12         70.2780    27.8620   -31.8100 ca         1 DZI      -0.160000
      3 C13         71.2820    27.5180   -32.7310 ca         1 DZI       0.096100
      4 C15         72.5510    28.1360   -32.6490 ca         1 DZI       0.109100
      5 C02         69.3890    29.1610   -29.8160 c          1 DZI       0.636700
      6 C05         68.6210    29.8540   -26.7900 ce         1 DZI       0.411800
      7 C06         67.6800    30.2760   -25.7520 cc         1 DZI      -0.238900
      8 C07         67.3870    29.6880   -24.5490 cd         1 DZI      -0.146000
      9 C08         66.4150    30.4570   -23.8820 cd         1 DZI      -0.188000
     10 C09         66.0890    31.5340   -24.6580 cc         1 DZI      -0.181000
     11 C17         72.7970    29.0910   -31.6440 ca         1 DZI       0.096100
     12 C19         71.7900    29.4320   -30.7240 ca         1 DZI      -0.160000
     13 N03         69.6800    30.1120   -28.8370 ns         1 DZI      -0.274900
     14 N04         68.7750    30.5460   -27.8780 n2         1 DZI      -0.445300
     15 N10         66.8710    31.4200   -25.8110 na         1 DZI      -0.076000
     16 O01         68.2880    28.6220   -29.8840 o          1 DZI      -0.549100
     17 O14         71.0140    26.5850   -33.6990 oh         1 DZI      -0.530600
     18 O16         73.5570    27.8260   -33.5310 oh         1 DZI      -0.507100
     19 O18         74.0290    29.6890   -31.5660 oh         1 DZI      -0.530600
     20 H121        69.3050    27.3810   -31.8810 ha         1 DZI       0.128000
     21 H051        69.1790    28.9360   -26.5920 h4         1 DZI      -0.005200
     22 H071        67.8350    28.7720   -24.1710 ha         1 DZI       0.129000
     23 H081        65.9910    30.2330   -22.9070 ha         1 DZI       0.134000
     24 H091        65.3900    32.3480   -24.4960 h4         1 DZI       0.148000
     25 H191        72.0140    30.1730   -29.9620 ha         1 DZI       0.128000
     26 H031        70.6190    30.4960   -28.8660 hn         1 DZI       0.306500
     27 H101        66.8590    32.0740   -26.5900 hn         1 DZI       0.365000
     28 H141        70.0880    26.2750   -33.5930 ho         1 DZI       0.472500
     29 H161        74.3280    28.3780   -33.2720 ho         1 DZI       0.480000
     30 H181        74.0300    30.3240   -30.8160 ho         1 DZI       0.472500
@<TRIPOS>BOND
     1     1     2 ar  
     2     1     5 1   
     3     1    12 ar  
     4     2     3 ar  
     5     2    20 1   
     6     3     4 ar  
     7     3    17 1   
     8     4    11 ar  
     9     4    18 1   
    10     5    13 1   
    11     5    16 2   
    12     6     7 1   
    13     6    14 2   
    14     6    21 1   
    15     7     8 2   
    16     7    15 1   
    17     8     9 1   
    18     8    22 1   
    19     9    10 2   
    20     9    23 1   
    21    10    15 1   
    22    10    24 1   
    23    11    12 ar  
    24    11    19 1   
    25    12    25 1   
    26    13    14 1   
    27    13    26 1   
    28    15    27 1   
    29    17    28 1   
    30    18    29 1   
    31    19    30 1   
@<TRIPOS>SUBSTRUCTURE
     1 DZI         1 TEMP              0 ****  ****    0 ROOT
