@<TRIPOS>MOLECULE
DZI
   30    31     1     0     0
SMALL
abcg2


@<TRIPOS>ATOM
      1 C11         70.4130    28.9140   -30.8770 ca         1 DZI      -0.117600
      2 C12         70.1570    28.1820   -32.0320 ca         1 DZI      -0.160000
      3 C13         71.1930    27.8120   -32.8760 ca         1 DZI       0.096100
      4 C15         72.5030    28.1930   -32.5820 ca         1 DZI       0.109100
      5 C02         69.2430    29.2760   -30.0310 c          1 DZI       0.636700
      6 C05         68.8330    29.9760   -26.6390 ce         1 DZI       0.411800
      7 C06         67.8390    30.3690   -25.6790 cc         1 DZI      -0.238900
      8 C07         67.9630    30.5270   -24.3110 cd         1 DZI      -0.146000
      9 C08         66.7020    30.9200   -23.8170 cd         1 DZI      -0.188000
     10 C09         65.8490    30.9890   -24.8980 cc         1 DZI      -0.181000
     11 C17         72.7520    28.9440   -31.4310 ca         1 DZI       0.096100
     12 C19         71.7170    29.3030   -30.5800 ca         1 DZI      -0.160000
     13 N03         69.5210    29.4970   -28.7190 ns         1 DZI      -0.274900
     14 N04         68.5400    29.8700   -27.8760 n2         1 DZI      -0.445300
     15 N10         66.5460    30.6560   -26.0080 na         1 DZI      -0.076000
     16 O01         68.1160    29.3510   -30.4860 o          1 DZI      -0.549100
     17 O14         71.0140    27.0900   -33.9990 oh         1 DZI      -0.530600
     18 O16         73.4790    27.8250   -33.4320 oh         1 DZI      -0.507100
     19 O18         74.0430    29.2860   -31.2320 oh         1 DZI      -0.530600
     20 H121        69.1420    27.8880   -32.2720 ha         1 DZI       0.128000
     21 H051        69.8320    29.7790   -26.2440 h4         1 DZI      -0.005200
     22 H071        68.8680    30.3730   -23.7430 ha         1 DZI       0.129000
     23 H081        66.4410    31.1300   -22.7920 ha         1 DZI       0.134000
     24 H091        64.8050    31.2470   -24.9510 h4         1 DZI       0.148000
     25 H191        71.9470    29.9170   -29.7160 ha         1 DZI       0.128000
     26 H031        70.4440    29.2980   -28.3500 hn         1 DZI       0.306500
     27 H101        66.1720    30.6170   -26.9430 hn         1 DZI       0.365000
     28 H141        70.0800    26.8780   -34.1120 ho         1 DZI       0.472500
     29 H161        74.3360    28.1330   -33.1120 ho         1 DZI       0.480000
     30 H181        74.1520    29.7790   -30.4110 ho         1 DZI       0.472500
@<TRIPOS>BOND
     1     1     2 ar  
     2     1     5 1   
     3     1    12 ar  
     4     2     3 ar  
     5     2    20 1   
     6     3     4 ar  
     7     3    17 1   
     8     4    11 ar  
     9     4    18 1   
    10     5    13 1   
    11     5    16 2   
    12     6     7 1   
    13     6    14 2   
    14     6    21 1   
    15     7     8 2   
    16     7    15 1   
    17     8     9 1   
    18     8    22 1   
    19     9    10 2   
    20     9    23 1   
    21    10    15 1   
    22    10    24 1   
    23    11    12 ar  
    24    11    19 1   
    25    12    25 1   
    26    13    14 1   
    27    13    26 1   
    28    15    27 1   
    29    17    28 1   
    30    18    29 1   
    31    19    30 1   
@<TRIPOS>SUBSTRUCTURE
     1 DZI         1 TEMP              0 ****  ****    0 ROOT
