@<TRIPOS>MOLECULE
DZJ
   34    37     1     0     0
SMALL
abcg2


@<TRIPOS>ATOM
      1 C1          -4.4950    -0.7140    -0.0920 ca         1 DZJ       0.115000
      2 C2          -3.6430    -1.5520    -0.8000 ca         1 DZJ      -0.084000
      3 C3          -2.2990    -1.2420    -0.9370 ca         1 DZJ      -0.068000
      4 C12          3.9220    -0.7060    -0.3860 ca         1 DZJ      -0.078300
      5 C13          3.5210    -1.9640     0.0630 ca         1 DZJ      -0.102000
      6 C14          4.2600    -2.6450     1.0190 ca         1 DZJ      -0.114500
      7 C15          5.4160    -2.0790     1.5440 ca         1 DZJ      -0.113000
      8 C16          5.8260    -0.8300     1.1010 ca         1 DZJ      -0.114500
      9 C17          5.0820    -0.1490     0.1440 ca         1 DZJ      -0.102000
     10 C4          -1.8190    -0.0760    -0.3530 ca         1 DZJ       0.038600
     11 C5          -2.6940     0.7500     0.3540 ca         1 DZJ      -0.200000
     12 C6          -4.0370     0.4510     0.4980 ca         1 DZJ      -0.054000
     13 N1          -0.5150     0.4420    -0.3530 n          1 DZJ      -0.208500
     14 C7          -0.3890     1.6130     0.3280 cc         1 DZJ       0.498800
     15 S1          -1.8910     2.1490     1.0060 ss         1 DZJ       0.146800
     16 C8           0.6160    -0.1490    -0.9790 c          1 DZJ       0.596200
     17 C9           1.8260     0.5860    -0.8190 cc         1 DZJ      -0.319400
     18 C10          1.8060     1.7540    -0.0960 cd         1 DZJ       0.405700
     19 N2           0.7040     2.2770     0.4760 nd         1 DZJ      -0.701300
     20 CL1         -6.1650    -1.1320     0.0570 cl         1 DZJ      -0.184000
     21 H1          -4.0230    -2.4580    -1.2510 ha         1 DZJ       0.140000
     22 H2          -1.6560    -1.9030    -1.4900 ha         1 DZJ       0.165000
     23 H3           3.6900     0.8510    -1.8360 hc         1 DZJ       0.063200
     24 H4           2.8490    -0.6270    -2.2350 hc         1 DZJ       0.063200
     25 H5           2.6240    -2.4170    -0.3420 ha         1 DZJ       0.116500
     26 H6           3.9360    -3.6230     1.3530 ha         1 DZJ       0.109500
     27 H7           5.9940    -2.6110     2.2890 ha         1 DZJ       0.109000
     28 H8           6.7270    -0.3810     1.5000 ha         1 DZJ       0.109500
     29 H9           5.4100     0.8260    -0.1940 ha         1 DZJ       0.116500
     30 H10         -4.6980     1.1030     1.0510 ha         1 DZJ       0.143000
     31 H11          2.7500     3.2310     0.5900 ho         1 DZJ       0.492000
     32 O1           2.9280     2.4360     0.0690 oh         1 DZJ      -0.497100
     33 O2           0.4830    -1.2010    -1.5840 o          1 DZJ      -0.537000
     34 C11          3.0980     0.0400    -1.4090 c3         1 DZJ       0.050100
@<TRIPOS>BOND
     1     1     2 ar  
     2     1    12 ar  
     3     1    20 1   
     4     2     3 ar  
     5     2    21 1   
     6     3    10 ar  
     7     3    22 1   
     8     4     5 ar  
     9     4     9 ar  
    10     4    34 1   
    11     5     6 ar  
    12     5    25 1   
    13     6     7 ar  
    14     6    26 1   
    15     7     8 ar  
    16     7    27 1   
    17     8     9 ar  
    18     8    28 1   
    19     9    29 1   
    20    10    11 ar  
    21    10    13 1   
    22    11    12 ar  
    23    11    15 1   
    24    12    30 1   
    25    13    14 1   
    26    13    16 1   
    27    14    15 1   
    28    14    19 2   
    29    16    17 1   
    30    16    33 2   
    31    17    18 2   
    32    17    34 1   
    33    18    19 1   
    34    18    32 1   
    35    23    34 1   
    36    24    34 1   
    37    31    32 1   
@<TRIPOS>SUBSTRUCTURE
     1 DZJ         1 TEMP              0 ****  ****    0 ROOT
