@<TRIPOS>MOLECULE
DZJ
   34    37     1     0     0
SMALL
No Charge or Current Charge


@<TRIPOS>ATOM
      1 C1          -4.4430    -0.7330     0.1160 ca         1 DZJ       0.115000
      2 C2          -3.5660    -1.6670    -0.4710 ca         1 DZJ      -0.084000
      3 C3          -2.2110    -1.3390    -0.6790 ca         1 DZJ      -0.068000
      4 C12          3.8990    -0.7580    -0.3900 ca         1 DZJ      -0.078300
      5 C13          3.7650    -2.1610    -0.3860 ca         1 DZJ      -0.102000
      6 C14          4.4310    -2.9360     0.5800 ca         1 DZJ      -0.114500
      7 C15          5.2340    -2.3120     1.5500 ca         1 DZJ      -0.113000
      8 C16          5.3720    -0.9140     1.5520 ca         1 DZJ      -0.114500
      9 C17          4.7060    -0.1400     0.5850 ca         1 DZJ      -0.102000
     10 C4          -1.7460    -0.0640    -0.2920 ca         1 DZJ       0.038600
     11 C5          -2.6210     0.8510     0.2890 ca         1 DZJ      -0.200000
     12 C6          -3.9730     0.5350     0.5010 ca         1 DZJ      -0.054000
     13 N1          -0.4280     0.4780    -0.4040 n          1 DZJ      -0.208500
     14 C7          -0.3550     1.7590     0.0880 cc         1 DZJ       0.498800
     15 S1          -1.8710     2.4180     0.7250 ss         1 DZJ       0.146800
     16 C8           0.7030    -0.1340    -0.9320 c          1 DZJ       0.596200
     17 C9           1.9060     0.7160    -0.8880 cc         1 DZJ      -0.319400
     18 C10          1.8570     1.9880    -0.3660 cd         1 DZJ       0.405700
     19 N2           0.7120     2.5510     0.1380 nd         1 DZJ      -0.701300
     20 Cl1         -6.1310    -1.1570     0.3700 cl         1 DZJ      -0.184000
     21 H1          -3.9390    -2.6450    -0.7650 ha         1 DZJ       0.140000
     22 H2          -1.5570    -2.0770    -1.1330 ha         1 DZJ       0.165000
     23 H3           3.8530     0.8670    -1.7970 hc         1 DZJ       0.063200
     24 H4           2.9580    -0.5160    -2.3260 hc         1 DZJ       0.063200
     25 H5           3.1440    -2.6540    -1.1310 ha         1 DZJ       0.116500
     26 H6           4.3230    -4.0180     0.5780 ha         1 DZJ       0.109500
     27 H7           5.7490    -2.9110     2.2980 ha         1 DZJ       0.109000
     28 H8           5.9930    -0.4300     2.3020 ha         1 DZJ       0.109500
     29 H9           4.8180     0.9420     0.5950 ha         1 DZJ       0.116500
     30 H10         -4.6500     1.2550     0.9560 ha         1 DZJ       0.143000
     31 H11          2.4650     3.6130     0.1310 ho         1 DZJ       0.492000
     32 O1           2.8780     2.8280    -0.2810 oh         1 DZJ      -0.497100
     33 O2           0.6960    -1.2680    -1.3910 o          1 DZJ      -0.537000
     34 C11          3.1750     0.0850    -1.4340 c3         1 DZJ       0.050100
@<TRIPOS>BOND
     1     1     2 ar  
     2     1    12 ar  
     3     1    20 1   
     4     2     3 ar  
     5     2    21 1   
     6     3    10 ar  
     7     3    22 1   
     8     4     5 ar  
     9     4     9 ar  
    10     4    34 1   
    11     5     6 ar  
    12     5    25 1   
    13     6     7 ar  
    14     6    26 1   
    15     7     8 ar  
    16     7    27 1   
    17     8     9 ar  
    18     8    28 1   
    19     9    29 1   
    20    10    11 ar  
    21    10    13 1   
    22    11    12 ar  
    23    11    15 1   
    24    12    30 1   
    25    13    14 1   
    26    13    16 1   
    27    14    15 1   
    28    14    19 2   
    29    16    17 1   
    30    16    33 2   
    31    17    18 2   
    32    17    34 1   
    33    18    19 1   
    34    18    32 1   
    35    23    34 1   
    36    24    34 1   
    37    31    32 1   
@<TRIPOS>SUBSTRUCTURE
     1 DZJ         1 TEMP              0 ****  ****    0 ROOT
