@<TRIPOS>MOLECULE
DZK
   26    26     1     0     0
SMALL
abcg2


@<TRIPOS>ATOM
      1 CAJ         -2.8640     1.7770    -0.0490 c          1 DZK       0.714000
      2 OAL         -2.5960     2.1220     1.1200 o          1 DZK      -0.767000
      3 CAK         -2.8970     0.2660    -0.3410 c3         1 DZK      -0.176400
      4 CAM         -1.8010    -0.5300     0.3470 c3         1 DZK       0.018300
      5 CAN         -1.9400    -2.0580     0.2280 c          1 DZK       0.714000
      6 OAP         -1.4920    -2.7250     1.1850 o          1 DZK      -0.753500
      7 OAO         -2.4580    -2.5100    -0.8110 o          1 DZK      -0.753500
      8 SAQ         -0.2160    -0.0220    -0.4130 ss         1 DZK      -0.478000
      9 CAR          1.0040    -0.7000     0.7570 c3         1 DZK       0.090900
     10 CAW          2.3600    -0.2110     0.3470 ca         1 DZK      -0.016300
     11 CAV          2.8500     1.0030     0.8230 ca         1 DZK      -0.102500
     12 CAU          4.0950     1.4710     0.4260 ca         1 DZK      -0.126500
     13 CAT          4.8650     0.7320    -0.4640 ca         1 DZK      -0.149000
     14 CAS          4.3820    -0.4760    -0.9510 ca         1 DZK      -0.126500
     15 CAX          3.1370    -0.9420    -0.5480 ca         1 DZK      -0.102500
     16 H2          -3.8610    -0.1170     0.0160 hc         1 DZK       0.033200
     17 H3          -2.8850     0.0820    -1.4170 hc         1 DZK       0.033200
     18 H4          -1.7490    -0.2380     1.3980 h1         1 DZK       0.066700
     19 H6           0.7530    -0.3580     1.7620 h1         1 DZK       0.073700
     20 H7           0.9570    -1.7880     0.7500 h1         1 DZK       0.073700
     21 H8           2.2520     1.5840     1.5160 ha         1 DZK       0.122500
     22 H9           4.4640     2.4120     0.8120 ha         1 DZK       0.087500
     23 H10          5.8360     1.0940    -0.7750 ha         1 DZK       0.081000
     24 H11          4.9750    -1.0570    -1.6450 ha         1 DZK       0.087500
     25 H12          2.7680    -1.8860    -0.9310 ha         1 DZK       0.122500
     26 O1          -3.1520     2.5390    -0.9950 o          1 DZK      -0.767000
@<TRIPOS>BOND
     1     1     2 1   
     2     1     3 1   
     3     1    26 1   
     4     3     4 1   
     5     3    16 1   
     6     3    17 1   
     7     4     5 1   
     8     4     8 1   
     9     4    18 1   
    10     5     6 1   
    11     5     7 1   
    12     8     9 1   
    13     9    10 1   
    14     9    19 1   
    15     9    20 1   
    16    10    11 ar  
    17    10    15 ar  
    18    11    12 ar  
    19    11    21 1   
    20    12    13 ar  
    21    12    22 1   
    22    13    14 ar  
    23    13    23 1   
    24    14    15 ar  
    25    14    24 1   
    26    15    25 1   
@<TRIPOS>SUBSTRUCTURE
     1 DZK         1 TEMP              0 ****  ****    0 ROOT
