@<TRIPOS>MOLECULE
DZK
   26    26     1     0     0
SMALL
No Charge or Current Charge


@<TRIPOS>ATOM
      1 CAJ         -3.2450     1.6640     0.1040 c          1 DZK       0.714000
      2 OAL         -3.8380     1.8370     1.1580 o          1 DZK      -0.767000
      3 CAK         -3.0580     0.2200    -0.3890 c3         1 DZK      -0.176400
      4 CAM         -1.8180    -0.4410     0.2800 c3         1 DZK       0.018300
      5 CAN         -1.9190    -2.0050     0.3290 c          1 DZK       0.714000
      6 OAP         -1.6910    -2.5640     1.3940 o          1 DZK      -0.753500
      7 OAO         -2.2310    -2.6180    -0.6850 o          1 DZK      -0.753500
      8 SAQ         -0.2340     0.1640    -0.5180 ss         1 DZK      -0.478000
      9 CAR          1.0150    -0.5390     0.6580 c3         1 DZK       0.090900
     10 CAW          2.4290    -0.1340     0.2630 ca         1 DZK      -0.016300
     11 CAV          2.9990     1.0490     0.7730 ca         1 DZK      -0.102500
     12 CAU          4.3060     1.4200     0.4120 ca         1 DZK      -0.126500
     13 CAT          5.0510     0.6090    -0.4620 ca         1 DZK      -0.149000
     14 CAS          4.4870    -0.5710    -0.9750 ca         1 DZK      -0.126500
     15 CAX          3.1800    -0.9420    -0.6140 ca         1 DZK      -0.102500
     16 H2          -3.9100    -0.3800    -0.0470 hc         1 DZK       0.033200
     17 H3          -2.9040     0.1820    -1.4740 hc         1 DZK       0.033200
     18 H4          -1.8000    -0.1150     1.3280 h1         1 DZK       0.066700
     19 H6           0.7980    -0.1800     1.6730 h1         1 DZK       0.073700
     20 H7           0.9340    -1.6330     0.6640 h1         1 DZK       0.073700
     21 H8           2.4270     1.6820     1.4480 ha         1 DZK       0.122500
     22 H9           4.7410     2.3340     0.8080 ha         1 DZK       0.087500
     23 H10          6.0620     0.8960    -0.7410 ha         1 DZK       0.081000
     24 H11          5.0620    -1.1980    -1.6520 ha         1 DZK       0.087500
     25 H12          2.7490    -1.8560    -1.0160 ha         1 DZK       0.122500
     26 O1          -2.8040     2.5810    -0.5720 o          1 DZK      -0.767000
@<TRIPOS>BOND
     1     1     2 1   
     2     1     3 1   
     3     1    26 1   
     4     3     4 1   
     5     3    16 1   
     6     3    17 1   
     7     4     5 1   
     8     4     8 1   
     9     4    18 1   
    10     5     6 1   
    11     5     7 1   
    12     8     9 1   
    13     9    10 1   
    14     9    19 1   
    15     9    20 1   
    16    10    11 ar  
    17    10    15 ar  
    18    11    12 ar  
    19    11    21 1   
    20    12    13 ar  
    21    12    22 1   
    22    13    14 ar  
    23    13    23 1   
    24    14    15 ar  
    25    14    24 1   
    26    15    25 1   
@<TRIPOS>SUBSTRUCTURE
     1 DZK         1 TEMP              0 ****  ****    0 ROOT
