@<TRIPOS>MOLECULE
DZL
   54    58     1     0     0
SMALL
abcg2


@<TRIPOS>ATOM
      1 C1         -25.7680    24.1120    11.7190 c3         1 DZL      -0.086100
      2 C2         -24.8760    25.3580    11.8060 c3         1 DZL      -0.111700
      3 C3         -25.1180    26.1290    13.0630 cc         1 DZL       0.420700
      4 N4         -26.1130    26.9590    13.2350 nd         1 DZL      -0.654000
      5 C5         -26.1490    27.4770    14.5050 cd         1 DZL       0.283300
      6 C6         -25.1480    27.0240    15.3350 cc         1 DZL      -0.286600
      7 S7         -24.1260    25.9330    14.4640 ss         1 DZL       0.066600
      8 C8         -24.7810    27.3420    16.7370 c          1 DZL       0.632700
      9 O9         -23.6030    27.2420    17.1040 o          1 DZL      -0.620100
     10 N10        -25.7850    27.7070    17.5500 ns         1 DZL      -0.492900
     11 C11        -25.5680    28.0890    18.9390 c6         1 DZL       0.118700
     12 C12        -26.7760    27.7190    19.8150 c6         1 DZL      -0.070200
     13 C13        -28.0080    28.5560    19.4360 c6         1 DZL      -0.072900
     14 C14        -27.6880    30.0480    19.6040 c6         1 DZL      -0.055700
     15 C15        -26.5060    30.4200    18.6960 c6         1 DZL      -0.072900
     16 C16        -25.2730    29.5960    19.0900 c6         1 DZL      -0.070200
     17 C17        -24.9100    29.8720    20.5560 c6         1 DZL      -0.077400
     18 C18        -26.0860    29.4950    21.4570 c6         1 DZL       0.172000
     19 C19        -27.3120    30.3290    21.0670 c6         1 DZL      -0.096400
     20 C20        -26.4040    28.0050    21.2780 c6         1 DZL      -0.077400
     21 O21        -25.6850    29.7710    22.8080 oh         1 DZL      -0.659000
     22 C22        -27.2150    28.4850    14.8830 c5         1 DZL       0.129000
     23 C23        -28.1660    28.8610    13.7510 c5         1 DZL      -0.087400
     24 C24        -29.2410    27.7580    13.8050 c5         1 DZL      -0.103400
     25 C25        -29.1020    27.1610    15.2190 c5         1 DZL       0.149600
     26 O26        -28.0950    27.9450    15.8900 os         1 DZL      -0.486000
     27 H11C       -25.5840    23.5820    10.7840 hc         1 DZL       0.041367
     28 H12C       -25.5630    23.4310    12.5470 hc         1 DZL       0.041367
     29 H13C       -26.8220    24.3900    11.7570 hc         1 DZL       0.041367
     30 H21C       -23.8260    25.0680    11.7510 hc         1 DZL       0.061700
     31 H22C       -25.0800    26.0210    10.9620 hc         1 DZL       0.061700
     32 H22        -26.7390    29.3540    15.3360 h1         1 DZL       0.087700
     33 H10        -26.7290    27.6950    17.1790 hn         1 DZL       0.347500
     34 H11        -24.6960    27.5310    19.2830 h1         1 DZL       0.078700
     35 H12        -26.9910    26.6540    19.6910 hc         1 DZL       0.063700
     36 H16        -24.4280    29.8540    18.4490 hc         1 DZL       0.063700
     37 H131       -28.3200    28.3540    18.4090 hc         1 DZL       0.045200
     38 H132       -28.8450    28.2740    20.0810 hc         1 DZL       0.045200
     39 H201       -27.2360    27.7310    21.9330 hc         1 DZL       0.053450
     40 H202       -25.5350    27.4150    21.5770 hc         1 DZL       0.053450
     41 H14        -28.5630    30.6440    19.3310 hc         1 DZL       0.052700
     42 H151       -26.7650    30.2370    17.6500 hc         1 DZL       0.045200
     43 H152       -26.2790    31.4850    18.7890 hc         1 DZL       0.045200
     44 H191       -27.0810    31.3890    21.2070 hc         1 DZL       0.046200
     45 H192       -28.1460    30.0780    21.7300 hc         1 DZL       0.046200
     46 H171       -24.0300    29.2930    20.8490 hc         1 DZL       0.053450
     47 H172       -24.6730    30.9300    20.6930 hc         1 DZL       0.053450
     48 H21        -26.4240    29.5490    23.3890 ho         1 DZL       0.438000
     49 H231       -28.6010    29.8340    13.9800 hc         1 DZL       0.064200
     50 H232       -27.6690    28.9180    12.7870 hc         1 DZL       0.064200
     51 H241       -30.2370    28.1650    13.6350 hc         1 DZL       0.057200
     52 H242       -29.0530    26.9950    13.0510 hc         1 DZL       0.057200
     53 H251       -30.0090    27.2350    15.8160 h1         1 DZL       0.049700
     54 H252       -28.7840    26.1160    15.1820 h1         1 DZL       0.049700
@<TRIPOS>BOND
     1     1     2 1   
     2     1    27 1   
     3     1    28 1   
     4     1    29 1   
     5     2     3 1   
     6     2    30 1   
     7     2    31 1   
     8     3     4 2   
     9     3     7 1   
    10     4     5 1   
    11     5     6 2   
    12     5    22 1   
    13     6     7 1   
    14     6     8 1   
    15     8     9 2   
    16     8    10 1   
    17    10    11 1   
    18    10    33 1   
    19    11    12 1   
    20    11    16 1   
    21    11    34 1   
    22    12    13 1   
    23    12    20 1   
    24    12    35 1   
    25    13    14 1   
    26    13    37 1   
    27    13    38 1   
    28    14    15 1   
    29    14    19 1   
    30    14    41 1   
    31    15    16 1   
    32    15    42 1   
    33    15    43 1   
    34    16    17 1   
    35    16    36 1   
    36    17    18 1   
    37    17    46 1   
    38    17    47 1   
    39    18    19 1   
    40    18    20 1   
    41    18    21 1   
    42    19    44 1   
    43    19    45 1   
    44    20    39 1   
    45    20    40 1   
    46    21    48 1   
    47    22    23 1   
    48    22    26 1   
    49    22    32 1   
    50    23    24 1   
    51    23    49 1   
    52    23    50 1   
    53    24    25 1   
    54    24    51 1   
    55    24    52 1   
    56    25    26 1   
    57    25    53 1   
    58    25    54 1   
@<TRIPOS>SUBSTRUCTURE
     1 DZL         1 TEMP              0 ****  ****    0 ROOT
