@<TRIPOS>MOLECULE
DZL
   54    58     1     0     0
SMALL
No Charge or Current Charge


@<TRIPOS>ATOM
      1 C1         -25.2630    24.3240    11.3980 c3         1 DZL      -0.086100
      2 C2         -24.8540    25.8000    11.5810 c3         1 DZL      -0.111700
      3 C3         -25.1850    26.3430    12.9440 cc         1 DZL       0.420700
      4 N4         -26.3230    26.9630    13.2130 nd         1 DZL      -0.654000
      5 C5         -26.3560    27.3330    14.5550 cd         1 DZL       0.283300
      6 C6         -25.2260    26.9800    15.2920 cc         1 DZL      -0.286600
      7 S7         -24.0560    26.1930    14.2610 ss         1 DZL       0.066600
      8 C8         -24.8950    27.1840    16.7270 c          1 DZL       0.632700
      9 O9         -23.7890    26.9240    17.1760 o          1 DZL      -0.620100
     10 N10        -25.8830    27.6590    17.5510 ns         1 DZL      -0.492900
     11 C11        -25.7380    27.9580    18.9820 c6         1 DZL       0.118700
     12 C12        -27.1270    28.0240    19.6940 c6         1 DZL      -0.070200
     13 C13        -27.9720    29.2240    19.1600 c6         1 DZL      -0.072900
     14 C14        -27.2110    30.5550    19.4120 c6         1 DZL      -0.055700
     15 C15        -25.8380    30.5080    18.6810 c6         1 DZL      -0.072900
     16 C16        -24.9960    29.3120    19.2240 c6         1 DZL      -0.070200
     17 C17        -24.7690    29.5020    20.7530 c6         1 DZL      -0.077400
     18 C18        -26.1400    29.5420    21.4930 c6         1 DZL       0.172000
     19 C19        -26.9790    30.7340    20.9410 c6         1 DZL      -0.096400
     20 C20        -26.9040    28.2100    21.2250 c6         1 DZL      -0.077400
     21 O21        -25.9250    29.7080    22.8950 oh         1 DZL      -0.659000
     22 C22        -27.5150    28.1300    15.1920 c5         1 DZL       0.129000
     23 C23        -28.6280    28.5250    14.1800 c5         1 DZL      -0.087400
     24 C24        -29.5000    27.2330    14.1010 c5         1 DZL      -0.103400
     25 C25        -29.0950    26.4300    15.3720 c5         1 DZL       0.149600
     26 O26        -28.2600    27.3260    16.1330 os         1 DZL      -0.486000
     27 H11C       -25.0040    23.9750    10.3920 hc         1 DZL       0.041367
     28 H12C       -24.7480    23.6850    12.1260 hc         1 DZL       0.041367
     29 H13C       -26.3450    24.2020    11.5360 hc         1 DZL       0.041367
     30 H21C       -23.7770    25.8980    11.4010 hc         1 DZL       0.061700
     31 H22C       -25.3510    26.4060    10.8140 hc         1 DZL       0.061700
     32 H22        -27.1070    29.0220    15.6860 h1         1 DZL       0.087700
     33 H10        -26.8130    27.7170    17.1490 hn         1 DZL       0.347500
     34 H11        -25.1510    27.1430    19.4330 h1         1 DZL       0.078700
     35 H12        -27.6720    27.0860    19.5200 hc         1 DZL       0.063700
     36 H16        -24.0210    29.2940    18.7180 hc         1 DZL       0.063700
     37 H131       -28.1850    29.1090    18.0900 hc         1 DZL       0.045200
     38 H132       -28.9500    29.2480    19.6620 hc         1 DZL       0.045200
     39 H201       -27.8710    28.2110    21.7470 hc         1 DZL       0.053450
     40 H202       -26.3370    27.3590    21.6280 hc         1 DZL       0.053450
     41 H14        -27.8040    31.3970    19.0280 hc         1 DZL       0.052700
     42 H151       -25.9860    30.4150    17.5970 hc         1 DZL       0.045200
     43 H152       -25.2970    31.4510    18.8360 hc         1 DZL       0.045200
     44 H191       -26.4620    31.6850    21.1330 hc         1 DZL       0.046200
     45 H192       -27.9450    30.7960    21.4600 hc         1 DZL       0.046200
     46 H171       -24.1500    28.6830    21.1460 hc         1 DZL       0.053450
     47 H172       -24.2100    30.4290    20.9390 hc         1 DZL       0.053450
     48 H21        -26.8120    29.7940    23.3060 ho         1 DZL       0.438000
     49 H231       -29.2150    29.3610    14.5760 hc         1 DZL       0.064200
     50 H232       -28.2420    28.8460    13.2060 hc         1 DZL       0.064200
     51 H241       -30.5710    27.4670    14.0900 hc         1 DZL       0.057200
     52 H242       -29.2890    26.6550    13.1940 hc         1 DZL       0.057200
     53 H251       -29.9580    26.1240    15.9780 h1         1 DZL       0.049700
     54 H252       -28.5130    25.5360    15.1120 h1         1 DZL       0.049700
@<TRIPOS>BOND
     1     1     2 1   
     2     1    27 1   
     3     1    28 1   
     4     1    29 1   
     5     2     3 1   
     6     2    30 1   
     7     2    31 1   
     8     3     4 2   
     9     3     7 1   
    10     4     5 1   
    11     5     6 2   
    12     5    22 1   
    13     6     7 1   
    14     6     8 1   
    15     8     9 2   
    16     8    10 1   
    17    10    11 1   
    18    10    33 1   
    19    11    12 1   
    20    11    16 1   
    21    11    34 1   
    22    12    13 1   
    23    12    20 1   
    24    12    35 1   
    25    13    14 1   
    26    13    37 1   
    27    13    38 1   
    28    14    15 1   
    29    14    19 1   
    30    14    41 1   
    31    15    16 1   
    32    15    42 1   
    33    15    43 1   
    34    16    17 1   
    35    16    36 1   
    36    17    18 1   
    37    17    46 1   
    38    17    47 1   
    39    18    19 1   
    40    18    20 1   
    41    18    21 1   
    42    19    44 1   
    43    19    45 1   
    44    20    39 1   
    45    20    40 1   
    46    21    48 1   
    47    22    23 1   
    48    22    26 1   
    49    22    32 1   
    50    23    24 1   
    51    23    49 1   
    52    23    50 1   
    53    24    25 1   
    54    24    51 1   
    55    24    52 1   
    56    25    26 1   
    57    25    53 1   
    58    25    54 1   
@<TRIPOS>SUBSTRUCTURE
     1 DZL         1 TEMP              0 ****  ****    0 ROOT
