@<TRIPOS>MOLECULE
DZN
   50    53     1     0     0
SMALL
No Charge or Current Charge


@<TRIPOS>ATOM
      1 O6           3.5960     0.8620    -3.3150 oh         1 DZN      -0.714000
      2 C6           2.9500     1.0220    -4.5970 c3         1 DZN       0.171600
      3 C5           1.6390     0.1800    -4.7400 c6         1 DZN       0.177300
      4 O5           0.7370     0.5460    -3.6610 os         1 DZN      -0.459000
      5 C4           0.9320     0.4020    -6.1170 c6         1 DZN       0.145300
      6 O4           1.7570    -0.0020    -7.2260 oh         1 DZN      -0.716000
      7 C3          -0.4100    -0.3890    -6.1450 c6         1 DZN       0.138300
      8 O3          -1.1190    -0.1470    -7.3720 oh         1 DZN      -0.663000
      9 C2          -1.2920     0.0020    -4.9260 c6         1 DZN       0.115300
     10 O2          -2.5440    -0.7300    -4.9520 oh         1 DZN      -0.720000
     11 C1          -0.4710    -0.2420    -3.6170 c6         1 DZN       0.365300
     12 O1          -1.2530     0.1370    -2.4690 os         1 DZN      -0.343100
     13 C18         -0.8190    -0.1180    -1.1830 ca         1 DZN       0.195100
     14 C19          0.3670    -0.8240    -0.8920 ca         1 DZN      -0.204000
     15 C20          0.7320    -1.0620     0.4430 ca         1 DZN       0.005000
     16 C21         -0.0830    -0.5890     1.4920 ca         1 DZN      -0.258600
     17 C22         -1.2520     0.1180     1.2080 ca         1 DZN       0.173100
     18 C23         -1.6210     0.3370    -0.1280 ca         1 DZN      -0.184000
     19 O24         -2.1280     0.5490     2.1850 os         1 DZN      -0.205200
     20 C25         -1.6150     0.7080     3.4660 cc         1 DZN       0.036100
     21 C26         -0.4940    -0.0060     3.8880 cd         1 DZN      -0.216400
     22 C27          0.2660    -0.8230     2.9060 c          1 DZN       0.602900
     23 O35          1.1310    -1.6370     3.2060 o          1 DZN      -0.535100
     24 C28         -0.1450    -0.0140     5.3400 ca         1 DZN      -0.069800
     25 C29         -1.1400     0.2280     6.3200 ca         1 DZN      -0.051500
     26 C30         -0.8230     0.2340     7.6900 ca         1 DZN      -0.179000
     27 C31          0.4940     0.0070     8.1090 ca         1 DZN       0.144100
     28 O34          0.8090     0.0130     9.4340 oh         1 DZN      -0.532100
     29 C32          1.4940    -0.2220     7.1580 ca         1 DZN      -0.179000
     30 C33          1.1810    -0.2310     5.7870 ca         1 DZN      -0.051500
     31 H6           4.3620     1.4810    -3.3000 ho         1 DZN       0.508000
     32 H6C1         2.6940     2.0780    -4.7610 h1         1 DZN       0.040200
     33 H6C2         3.6370     0.7260    -5.4000 h1         1 DZN       0.040200
     34 H5           1.9040    -0.8820    -4.6350 h1         1 DZN       0.061700
     35 H4           0.6970     1.4750    -6.2040 h1         1 DZN       0.058700
     36 HA           1.1310    -0.0980    -7.9850 ho         1 DZN       0.527000
     37 H3          -0.1770    -1.4620    -6.0600 h1         1 DZN       0.054700
     38 HB          -2.0500    -0.4090    -7.1790 ho         1 DZN       0.467000
     39 H2          -1.4950     1.0830    -4.9850 h1         1 DZN       0.070700
     40 HC          -3.0180    -0.5140    -4.1120 ho         1 DZN       0.525000
     41 H1          -0.2200    -1.3110    -3.5470 h2         1 DZN       0.050700
     42 H19          1.0160    -1.1950    -1.6800 ha         1 DZN       0.147000
     43 H20          1.6490    -1.6100     0.6570 ha         1 DZN       0.141000
     44 H23         -2.5430     0.8660    -0.3490 ha         1 DZN       0.144000
     45 H25         -2.2430     1.3470     4.0770 h4         1 DZN       0.231000
     46 H29         -2.1770     0.3830     6.0370 ha         1 DZN       0.118000
     47 H30         -1.6100     0.4110     8.4200 ha         1 DZN       0.121000
     48 H34         -0.0090     0.1890     9.9460 ho         1 DZN       0.464000
     49 H32          2.5190    -0.3850     7.4790 ha         1 DZN       0.121000
     50 H33          1.9940    -0.3710     5.0820 ha         1 DZN       0.118000
@<TRIPOS>BOND
     1     1     2 1   
     2     1    31 1   
     3     2     3 1   
     4     2    32 1   
     5     2    33 1   
     6     3     4 1   
     7     3     5 1   
     8     3    34 1   
     9     4    11 1   
    10     5     6 1   
    11     5     7 1   
    12     5    35 1   
    13     6    36 1   
    14     7     8 1   
    15     7     9 1   
    16     7    37 1   
    17     8    38 1   
    18     9    10 1   
    19     9    11 1   
    20     9    39 1   
    21    10    40 1   
    22    11    12 1   
    23    11    41 1   
    24    12    13 1   
    25    13    14 ar  
    26    13    18 ar  
    27    14    15 ar  
    28    14    42 1   
    29    15    16 ar  
    30    15    43 1   
    31    16    17 ar  
    32    16    22 1   
    33    17    18 ar  
    34    17    19 1   
    35    18    44 1   
    36    19    20 1   
    37    20    21 2   
    38    20    45 1   
    39    21    22 1   
    40    21    24 1   
    41    22    23 2   
    42    24    25 ar  
    43    24    30 ar  
    44    25    26 ar  
    45    25    46 1   
    46    26    27 ar  
    47    26    47 1   
    48    27    28 1   
    49    27    29 ar  
    50    28    48 1   
    51    29    30 ar  
    52    29    49 1   
    53    30    50 1   
@<TRIPOS>SUBSTRUCTURE
     1 DZN         1 TEMP              0 ****  ****    0 ROOT
