@<TRIPOS>MOLECULE
DZN
   50    53     1     0     0
SMALL
abcg2


@<TRIPOS>ATOM
      1 O6           3.6520     0.3970    -3.8400 oh         1 DZN      -0.714000
      2 C6           2.9230     0.6120    -5.0250 c3         1 DZN       0.171600
      3 C5           1.5630    -0.0310    -4.8710 c6         1 DZN       0.177300
      4 O5           0.8900     0.6350    -3.8170 os         1 DZN      -0.459000
      5 C4           0.7130     0.0620    -6.1380 c6         1 DZN       0.145300
      6 O4           1.3730    -0.6400    -7.1600 oh         1 DZN      -0.716000
      7 C3          -0.6690    -0.5240    -5.8650 c6         1 DZN       0.138300
      8 O3          -1.4460    -0.3250    -7.0200 oh         1 DZN      -0.663000
      9 C2          -1.3020     0.1210    -4.6370 c6         1 DZN       0.115300
     10 O2          -2.4980    -0.5600    -4.3620 oh         1 DZN      -0.720000
     11 C1          -0.3160     0.0250    -3.4770 c6         1 DZN       0.365300
     12 O1          -0.8620     0.7230    -2.3970 os         1 DZN      -0.343100
     13 C18         -0.4390     0.4590    -1.1430 ca         1 DZN       0.195100
     14 C19          0.7860    -0.1610    -0.8460 ca         1 DZN      -0.204000
     15 C20          1.1180    -0.3960     0.4680 ca         1 DZN       0.005000
     16 C21          0.2750    -0.0170     1.5180 ca         1 DZN      -0.258600
     17 C22         -0.9230     0.6140     1.1870 ca         1 DZN       0.173100
     18 C23         -1.2930     0.8520    -0.1280 ca         1 DZN      -0.184000
     19 O24         -1.7870     1.0140     2.1430 os         1 DZN      -0.205200
     20 C25         -1.4930     0.7980     3.4280 cc         1 DZN       0.036100
     21 C26         -0.3790     0.1900     3.8800 cd         1 DZN      -0.216400
     22 C27          0.6210    -0.2710     2.9170 c          1 DZN       0.602900
     23 O35          1.6560    -0.8310     3.2460 o          1 DZN      -0.535100
     24 C28         -0.1990    -0.0280     5.3260 ca         1 DZN      -0.069800
     25 C29         -1.2120    -0.6070     6.0870 ca         1 DZN      -0.051500
     26 C30         -1.0770    -0.7820     7.4560 ca         1 DZN      -0.179000
     27 C31          0.0940    -0.3850     8.0950 ca         1 DZN       0.144100
     28 O34          0.2880    -0.5310     9.4190 oh         1 DZN      -0.532100
     29 C32          1.1210     0.1880     7.3450 ca         1 DZN      -0.179000
     30 C33          0.9720     0.3590     5.9800 ca         1 DZN      -0.051500
     31 H6           4.5420     0.7340    -3.9740 ho         1 DZN       0.508000
     32 H6C1         2.7920     1.6820    -5.2390 h1         1 DZN       0.040200
     33 H6C2         3.4190     0.1690    -5.8940 h1         1 DZN       0.040200
     34 H5           1.7000    -1.0950    -4.6150 h1         1 DZN       0.061700
     35 H4           0.5970     1.1260    -6.3980 h1         1 DZN       0.058700
     36 HA           0.8380    -0.5840    -7.9580 ho         1 DZN       0.527000
     37 H3          -0.5440    -1.5990    -5.6590 h1         1 DZN       0.054700
     38 HB          -2.2460    -0.8550    -6.9500 ho         1 DZN       0.467000
     39 H2          -1.4790     1.1860    -4.8460 h1         1 DZN       0.070700
     40 HC          -3.0290    -0.0300    -3.7600 ho         1 DZN       0.525000
     41 H1          -0.1550    -1.0320    -3.2050 h2         1 DZN       0.050700
     42 H19          1.4850    -0.4300    -1.6250 ha         1 DZN       0.147000
     43 H20          2.0590    -0.8760     0.7010 ha         1 DZN       0.141000
     44 H23         -2.2370     1.3320    -0.3560 ha         1 DZN       0.144000
     45 H25         -2.2670     1.1830     4.0790 h4         1 DZN       0.231000
     46 H29         -2.1230    -0.9410     5.6060 ha         1 DZN       0.118000
     47 H30         -1.8820    -1.2380     8.0200 ha         1 DZN       0.121000
     48 H34         -0.4940    -0.9120     9.8340 ho         1 DZN       0.464000
     49 H32          2.0320     0.5060     7.8360 ha         1 DZN       0.121000
     50 H33          1.7770     0.8220     5.4250 ha         1 DZN       0.118000
@<TRIPOS>BOND
     1     1     2 1   
     2     1    31 1   
     3     2     3 1   
     4     2    32 1   
     5     2    33 1   
     6     3     4 1   
     7     3     5 1   
     8     3    34 1   
     9     4    11 1   
    10     5     6 1   
    11     5     7 1   
    12     5    35 1   
    13     6    36 1   
    14     7     8 1   
    15     7     9 1   
    16     7    37 1   
    17     8    38 1   
    18     9    10 1   
    19     9    11 1   
    20     9    39 1   
    21    10    40 1   
    22    11    12 1   
    23    11    41 1   
    24    12    13 1   
    25    13    14 ar  
    26    13    18 ar  
    27    14    15 ar  
    28    14    42 1   
    29    15    16 ar  
    30    15    43 1   
    31    16    17 ar  
    32    16    22 1   
    33    17    18 ar  
    34    17    19 1   
    35    18    44 1   
    36    19    20 1   
    37    20    21 2   
    38    20    45 1   
    39    21    22 1   
    40    21    24 1   
    41    22    23 2   
    42    24    25 ar  
    43    24    30 ar  
    44    25    26 ar  
    45    25    46 1   
    46    26    27 ar  
    47    26    47 1   
    48    27    28 1   
    49    27    29 ar  
    50    28    48 1   
    51    29    30 ar  
    52    29    49 1   
    53    30    50 1   
@<TRIPOS>SUBSTRUCTURE
     1 DZN         1 TEMP              0 ****  ****    0 ROOT
