@<TRIPOS>MOLECULE
DZO
   38    41     1     0     0
SMALL
No Charge or Current Charge


@<TRIPOS>ATOM
      1 C4           3.7900     1.5640     0.2220 cc         1 DZO       0.409500
      2 C3          -0.4650     2.1150    -0.2530 cc         1 DZO       0.650900
      3 C2           2.6860     0.6610     0.2400 cc         1 DZO      -0.240800
      4 C1           1.5930     1.4740     0.0870 cd         1 DZO       0.431500
      5 C10         -3.8360     0.7940     0.2410 ca         1 DZO      -0.170000
      6 C12         -4.6660    -0.3380     0.2390 ca         1 DZO       0.149000
      7 Cl1         -6.2150    -0.2880     1.0690 cl         1 DZO      -0.204000
      8 C17         -4.2650    -1.5090    -0.4230 ca         1 DZO      -0.130000
      9 C15         -3.0300    -1.5460    -1.0920 ca         1 DZO      -0.077000
     10 C16         -2.2010    -0.4100    -1.0880 ca         1 DZO      -0.128000
     11 C9          -2.5940     0.7610    -0.4110 ca         1 DZO       0.316000
     12 N4          -1.8000     1.9100    -0.4030 nu         1 DZO      -0.931900
     13 C5          -0.0410     3.4910    -0.2890 cc         1 DZO      -0.267000
     14 C7           1.2920     3.8580    -0.1450 cd         1 DZO       0.000000
     15 N1           0.2890     1.0510    -0.0770 nd         1 DZO      -0.732000
     16 N2           2.1200     2.7580     0.0500 na         1 DZO       0.086900
     17 N3           3.4900     2.8570     0.1220 nd         1 DZO      -0.577100
     18 C6           2.7110    -0.8170     0.2490 ca         1 DZO       0.048200
     19 C8           3.9300    -1.4710    -0.0380 ca         1 DZO      -0.180000
     20 C13          1.5900    -1.6220     0.5670 ca         1 DZO      -0.143000
     21 C14          1.6820    -3.0240     0.5670 ca         1 DZO      -0.074000
     22 C18          2.8990    -3.6480     0.2590 ca         1 DZO      -0.181000
     23 C11          4.0230    -2.8700    -0.0400 ca         1 DZO       0.289000
     24 N5           5.2130    -3.4770    -0.3340 nv         1 DZO      -1.074000
     25 H4           4.8370     1.3010     0.2840 h4         1 DZO       0.050800
     26 H10         -4.1590     1.6930     0.7580 ha         1 DZO       0.123000
     27 H17         -4.9120    -2.3820    -0.4220 ha         1 DZO       0.132000
     28 H15         -2.7180    -2.4480    -1.6130 ha         1 DZO       0.121000
     29 H16         -1.2540    -0.4380    -1.6170 ha         1 DZO       0.159000
     30 HN4         -2.3170     2.7710    -0.2570 hn         1 DZO       0.500000
     31 H5          -0.7880     4.2600    -0.4470 ha         1 DZO       0.140000
     32 H7           1.7140     4.8560    -0.1750 h4         1 DZO       0.164000
     33 H8           4.8150    -0.8920    -0.2800 ha         1 DZO       0.106000
     34 H13          0.6400    -1.1840     0.8490 ha         1 DZO       0.128000
     35 H14          0.8100    -3.6260     0.8160 ha         1 DZO       0.107000
     36 H18          2.9660    -4.7320     0.2620 ha         1 DZO       0.109000
     37 HN5          5.9920    -2.9240    -0.6870 hn         1 DZO       0.444500
     38 HN5A         5.2490    -4.4860    -0.4700 hn         1 DZO       0.444500
@<TRIPOS>BOND
     1     1     3 1   
     2     1    17 2   
     3     1    25 1   
     4     2    12 1   
     5     2    13 1   
     6     2    15 2   
     7     3     4 2   
     8     3    18 1   
     9     4    15 1   
    10     4    16 1   
    11     5     6 ar  
    12     5    11 ar  
    13     5    26 1   
    14     6     7 1   
    15     6     8 ar  
    16     8     9 ar  
    17     8    27 1   
    18     9    10 ar  
    19     9    28 1   
    20    10    11 ar  
    21    10    29 1   
    22    11    12 1   
    23    12    30 1   
    24    13    14 2   
    25    13    31 1   
    26    14    16 1   
    27    14    32 1   
    28    16    17 1   
    29    18    19 ar  
    30    18    20 ar  
    31    19    23 ar  
    32    19    33 1   
    33    20    21 ar  
    34    20    34 1   
    35    21    22 ar  
    36    21    35 1   
    37    22    23 ar  
    38    22    36 1   
    39    23    24 1   
    40    24    37 1   
    41    24    38 1   
@<TRIPOS>SUBSTRUCTURE
     1 DZO         1 TEMP              0 ****  ****    0 ROOT
