@<TRIPOS>MOLECULE
DZO
   38    41     1     0     0
SMALL
bcc


@<TRIPOS>ATOM
      1 C4           3.7920     1.5170     0.1810 cc         1 DZO       0.409500
      2 C3          -0.5420     2.1570    -0.1140 cc         1 DZO       0.716200
      3 C2           2.7250     0.5990     0.1300 cc         1 DZO      -0.240800
      4 C1           1.5990     1.4160     0.0510 cd         1 DZO       0.431500
      5 C10         -4.0060     0.9110    -0.1620 ca         1 DZO      -0.187000
      6 C12         -4.8160    -0.2050    -0.2330 ca         1 DZO       0.057400
      7 CL1         -6.5320    -0.0020    -0.0920 cl         1 DZO      -0.112400
      8 C17         -4.2940    -1.4780    -0.4110 ca         1 DZO      -0.148000
      9 C15         -2.9180    -1.6000    -0.5200 ca         1 DZO      -0.095000
     10 C16         -2.0740    -0.5010    -0.4540 ca         1 DZO      -0.146000
     11 C9          -2.6180     0.7740    -0.2730 ca         1 DZO       0.177600
     12 N4          -1.8820     1.9520    -0.2100 nu         1 DZO      -0.738300
     13 C5          -0.0970     3.5210    -0.0910 cc         1 DZO      -0.350300
     14 C7           1.2280     3.7640    -0.0040 cd         1 DZO       0.032700
     15 N1           0.2890     1.1490    -0.0430 nd         1 DZO      -0.732000
     16 N2           2.0730     2.7090     0.0630 na         1 DZO       0.036200
     17 N3           3.4080     2.7790     0.1430 nd         1 DZO      -0.577100
     18 C6           2.7940    -0.8590     0.1580 ca         1 DZO       0.048200
     19 C8           3.9670    -1.5040    -0.2350 ca         1 DZO      -0.198000
     20 C13          1.7090    -1.6300     0.5870 ca         1 DZO      -0.161000
     21 C14          1.8170    -3.0130     0.6060 ca         1 DZO      -0.092000
     22 C18          2.9830    -3.6510     0.2200 ca         1 DZO      -0.199000
     23 C11          4.0840    -2.8960    -0.2030 ca         1 DZO       0.150600
     24 N5           5.2730    -3.5100    -0.5360 nv         1 DZO      -0.825200
     25 H4           4.8450     1.2890     0.2590 h4         1 DZO       0.050800
     26 H10         -4.4450     1.8910    -0.0180 ha         1 DZO       0.141000
     27 H17         -4.9390    -2.3430    -0.4630 ha         1 DZO       0.150000
     28 H15         -2.4860    -2.5820    -0.6650 ha         1 DZO       0.139000
     29 H16         -1.0100    -0.6360    -0.5440 ha         1 DZO       0.177000
     30 HN4         -2.4400     2.7910    -0.2040 hn         1 DZO       0.444800
     31 H5          -0.7950     4.3440    -0.1460 ha         1 DZO       0.158000
     32 H7           1.6670     4.7500     0.0150 h4         1 DZO       0.182000
     33 H8           4.8100    -0.9210    -0.5900 ha         1 DZO       0.124000
     34 H13          0.7950    -1.1550     0.9130 ha         1 DZO       0.146000
     35 H14          0.9730    -3.6070     0.9350 ha         1 DZO       0.125000
     36 H18          3.0470    -4.7330     0.2440 ha         1 DZO       0.127000
     37 HN5          5.8880    -2.9780    -1.1310 hn         1 DZO       0.389300
     38 HN5A         5.1990    -4.4670    -0.8420 hn         1 DZO       0.389300
@<TRIPOS>BOND
     1     1     3 1   
     2     1    17 2   
     3     1    25 1   
     4     2    12 1   
     5     2    13 1   
     6     2    15 2   
     7     3     4 2   
     8     3    18 1   
     9     4    15 1   
    10     4    16 1   
    11     5     6 ar  
    12     5    11 ar  
    13     5    26 1   
    14     6     7 1   
    15     6     8 ar  
    16     8     9 ar  
    17     8    27 1   
    18     9    10 ar  
    19     9    28 1   
    20    10    11 ar  
    21    10    29 1   
    22    11    12 1   
    23    12    30 1   
    24    13    14 2   
    25    13    31 1   
    26    14    16 1   
    27    14    32 1   
    28    16    17 1   
    29    18    19 ar  
    30    18    20 ar  
    31    19    23 ar  
    32    19    33 1   
    33    20    21 ar  
    34    20    34 1   
    35    21    22 ar  
    36    21    35 1   
    37    22    23 ar  
    38    22    36 1   
    39    23    24 1   
    40    24    37 1   
    41    24    38 1   
@<TRIPOS>SUBSTRUCTURE
     1 DZO         1 TEMP              0 ****  ****    0 ROOT
