@<TRIPOS>MOLECULE
DZP
   33    35     1     0     0
SMALL
bcc


@<TRIPOS>ATOM
      1 C1           3.5460     0.4580     1.5050 ca         1 DZP      -0.137500
      2 C2           4.4430     1.2410     0.7920 ca         1 DZP      -0.111000
      3 C3           4.0100     1.9400    -0.3290 ca         1 DZP      -0.137500
      4 C4           2.6870     1.8590    -0.7320 ca         1 DZP      -0.093500
      5 C5           0.3630     1.0140    -0.4500 ce         1 DZP       0.532500
      6 C6          -1.7040    -0.2350     0.2460 ca         1 DZP       0.086600
      7 C7          -2.3580    -1.4530     0.4390 ca         1 DZP      -0.157000
      8 C8          -1.7430    -2.6520     0.1370 ca         1 DZP      -0.088000
      9 C9          -0.4500    -2.6430    -0.3670 ca         1 DZP       0.003400
     10 C11          2.2240     0.3650     1.0950 ca         1 DZP      -0.093500
     11 C12          1.7810     1.0660    -0.0260 ca         1 DZP      -0.143900
     12 C13         -0.3890    -0.2400    -0.2380 ca         1 DZP      -0.201900
     13 C14          0.2260    -1.4550    -0.5470 ca         1 DZP      -0.075000
     14 N15         -0.1390     2.0470    -0.9960 n2         1 DZP      -0.567900
     15 C17         -1.5120     1.9870    -1.4400 c3         1 DZP       0.024800
     16 C18         -2.4280     2.0390    -0.2330 c          1 DZP       0.702500
     17 N2          -2.3650     0.9540     0.5980 n          1 DZP      -0.394000
     18 O1          -3.1460     2.9880     0.0060 o          1 DZP      -0.594500
     19 CL           0.3240    -4.1380    -0.7690 cl         1 DZP      -0.098400
     20 H1           3.8750    -0.0820     2.3830 ha         1 DZP       0.134500
     21 H2           5.4770     1.3060     1.1070 ha         1 DZP       0.132000
     22 H3           4.7060     2.5500    -0.8900 ha         1 DZP       0.134500
     23 H4           2.3530     2.4000    -1.6070 ha         1 DZP       0.142000
     24 H7          -3.3720    -1.4700     0.8160 ha         1 DZP       0.146000
     25 H8          -2.2730    -3.5820     0.2840 ha         1 DZP       0.152000
     26 H11          1.5340    -0.2440     1.6640 ha         1 DZP       0.142000
     27 H14          1.2380    -1.4580    -0.9300 ha         1 DZP       0.161000
     28 H171        -1.7240     1.0890    -2.0340 h1         1 DZP       0.081200
     29 H172        -1.7250     2.8540    -2.0610 h1         1 DZP       0.081200
     30 H201        -3.2300     1.9370     2.2270 h1         1 DZP       0.050367
     31 H202        -4.2480     0.6660     1.5390 h1         1 DZP       0.050367
     32 H203        -2.8220     0.2460     2.5050 h1         1 DZP       0.050367
     33 C20         -3.2210     0.9480     1.7770 c3         1 DZP       0.084300
@<TRIPOS>BOND
     1     1     2 ar  
     2     1    10 ar  
     3     1    20 1   
     4     2     3 ar  
     5     2    21 1   
     6     3     4 ar  
     7     3    22 1   
     8     4    11 ar  
     9     4    23 1   
    10     5    11 1   
    11     5    12 1   
    12     5    14 2   
    13     6     7 ar  
    14     6    12 ar  
    15     6    17 1   
    16     7     8 ar  
    17     7    24 1   
    18     8     9 ar  
    19     8    25 1   
    20     9    13 ar  
    21     9    19 1   
    22    10    11 ar  
    23    10    26 1   
    24    12    13 ar  
    25    13    27 1   
    26    14    15 1   
    27    15    16 1   
    28    15    28 1   
    29    15    29 1   
    30    16    17 1   
    31    16    18 2   
    32    17    33 1   
    33    30    33 1   
    34    31    33 1   
    35    32    33 1   
@<TRIPOS>SUBSTRUCTURE
     1 DZP         1 TEMP              0 ****  ****    0 ROOT
