@<TRIPOS>MOLECULE
DZP
   33    35     1     0     0
SMALL
No Charge or Current Charge


@<TRIPOS>ATOM
      1 C1           3.5880     0.4170     1.4970 ca         1 DZP      -0.119500
      2 C2           4.4860     1.2840     0.8570 ca         1 DZP      -0.093000
      3 C3           4.0520     2.0560    -0.2330 ca         1 DZP      -0.119500
      4 C4           2.7260     1.9550    -0.6860 ca         1 DZP      -0.075500
      5 C5           0.3860     0.9800    -0.5210 ce         1 DZP       0.532500
      6 C6          -1.6590    -0.2660     0.3880 ca         1 DZP      -0.006000
      7 C7          -2.3500    -1.4910     0.5290 ca         1 DZP      -0.139000
      8 C8          -1.7520    -2.7100     0.1700 ca         1 DZP      -0.070000
      9 C9          -0.4680    -2.7180    -0.3860 ca         1 DZP       0.095000
     10 C11          2.2610     0.3130     1.0460 ca         1 DZP      -0.075500
     11 C12          1.8160     1.0670    -0.0660 ca         1 DZP      -0.143900
     12 C13         -0.3850    -0.2760    -0.2430 ca         1 DZP      -0.201900
     13 C14          0.2050    -1.5090    -0.6040 ca         1 DZP      -0.057000
     14 N15         -0.1240     1.9240    -1.2520 n2         1 DZP      -0.567900
     15 C17         -1.5720     1.9550    -1.5490 c3         1 DZP       0.024800
     16 C18         -2.4200     2.0540    -0.2640 c          1 DZP       0.560000
     17 N2          -2.3860     0.9580     0.6330 n          1 DZP      -0.234400
     18 O1          -3.0910     3.0560    -0.0330 o          1 DZP      -0.519000
     19 Cl           0.2830    -4.2400    -0.8470 cl         1 DZP      -0.190000
     20 H1           3.9180    -0.1730     2.3500 ha         1 DZP       0.116500
     21 H2           5.5130     1.3640     1.2080 ha         1 DZP       0.114000
     22 H3           4.7440     2.7350    -0.7250 ha         1 DZP       0.116500
     23 H4           2.4120     2.5660    -1.5310 ha         1 DZP       0.124000
     24 H7          -3.3650    -1.5090     0.9210 ha         1 DZP       0.128000
     25 H8          -2.2900    -3.6450     0.3090 ha         1 DZP       0.134000
     26 H11          1.5790    -0.3520     1.5720 ha         1 DZP       0.124000
     27 H14          1.1890    -1.5300    -1.0680 ha         1 DZP       0.143000
     28 H171        -1.8900     1.0540    -2.0890 h1         1 DZP       0.081200
     29 H172        -1.8210     2.8200    -2.1770 h1         1 DZP       0.081200
     30 H201        -3.1370     2.0030     2.3260 h1         1 DZP       0.050367
     31 H202        -4.2980     0.8840     1.5490 h1         1 DZP       0.050367
     32 H203        -2.9630     0.2480     2.5550 h1         1 DZP       0.050367
     33 C20         -3.2490     1.0270     1.8370 c3         1 DZP       0.084300
@<TRIPOS>BOND
     1     1     2 ar  
     2     1    10 ar  
     3     1    20 1   
     4     2     3 ar  
     5     2    21 1   
     6     3     4 ar  
     7     3    22 1   
     8     4    11 ar  
     9     4    23 1   
    10     5    11 1   
    11     5    12 1   
    12     5    14 2   
    13     6     7 ar  
    14     6    12 ar  
    15     6    17 1   
    16     7     8 ar  
    17     7    24 1   
    18     8     9 ar  
    19     8    25 1   
    20     9    13 ar  
    21     9    19 1   
    22    10    11 ar  
    23    10    26 1   
    24    12    13 ar  
    25    13    27 1   
    26    14    15 1   
    27    15    16 1   
    28    15    28 1   
    29    15    29 1   
    30    16    17 1   
    31    16    18 2   
    32    17    33 1   
    33    30    33 1   
    34    31    33 1   
    35    32    33 1   
@<TRIPOS>SUBSTRUCTURE
     1 DZP         1 TEMP              0 ****  ****    0 ROOT
