@<TRIPOS>MOLECULE
DZQ
   54    56     1     0     0
SMALL
No Charge or Current Charge


@<TRIPOS>ATOM
      1 C10        123.4130   116.3540    90.3530 c3         1 DZQ      -0.103100
      2 C13        123.2890   119.8040    93.2460 c3         1 DZQ       0.216600
      3 C15        122.2290   120.9050    93.1260 ca         1 DZQ      -0.069300
      4 C17        119.9760   121.7350    93.6170 ca         1 DZQ       0.151100
      5 C20        121.4890   123.0850    92.2870 ca         1 DZQ      -0.037000
      6 C21        122.4900   122.0920    92.4070 ca         1 DZQ       0.040100
      7 C24        122.9700   124.4720    90.8900 c          1 DZQ       0.542000
      8 C28        124.5780   111.5360    91.8030 ca         1 DZQ      -0.171500
      9 C01        125.4010   109.6230    88.7110 c3         1 DZQ       0.148900
     10 C03        125.0070   111.2870    90.4900 ca         1 DZQ       0.137100
     11 C04        125.4460   112.3630    89.6880 ca         1 DZQ      -0.171500
     12 C05        125.4470   113.6710    90.2040 ca         1 DZQ      -0.071500
     13 C06        125.0050   113.9220    91.5170 ca         1 DZQ      -0.111300
     14 C08        123.7090   116.1710    91.8670 c3         1 DZQ       0.201200
     15 C09        122.5080   115.4900    92.5760 c3         1 DZQ      -0.103100
     16 N11        123.9560   117.4950    92.4920 n7         1 DZQ      -0.878400
     17 C12        122.9380   118.5770    92.3530 c3         1 DZQ       0.177800
     18 O14        123.4290   119.3970    94.6230 oh         1 DZQ      -0.664000
     19 C16        120.9610   120.7390    93.7310 ca         1 DZQ      -0.196000
     20 C19        120.2350   122.9060    92.8920 ca         1 DZQ      -0.166000
     21 O22        123.7120   122.2820    91.7830 os         1 DZQ      -0.324100
     22 C23        124.1210   123.6490    91.4990 c6         1 DZQ       0.071600
     23 O25        123.0960   125.2180    89.9250 o          1 DZQ      -0.525000
     24 N26        121.7610   124.2230    91.4980 ns         1 DZQ      -0.144000
     25 C27        124.5800   112.8440    92.3180 ca         1 DZQ      -0.071500
     26 H1         124.2390   116.8710    89.8510 hc         1 DZQ       0.038700
     27 H2         123.2700   115.3840    89.8630 hc         1 DZQ       0.038700
     28 H3         122.4950   116.9300    90.1880 hc         1 DZQ       0.038700
     29 H4         124.2530   120.1930    92.8910 h1         1 DZQ       0.064700
     30 H5         124.2440   110.7110    92.4260 ha         1 DZQ       0.120500
     31 H6         125.3000   108.5410    88.5610 h1         1 DZQ       0.039700
     32 H7         124.7840   110.1290    87.9570 h1         1 DZQ       0.039700
     33 H8         126.4520   109.8920    88.5470 h1         1 DZQ       0.039700
     34 H9         125.7890   112.2050    88.6700 ha         1 DZQ       0.120500
     35 H10        125.7910   114.4920    89.5780 ha         1 DZQ       0.111500
     36 H11        125.2400   115.3030    93.1540 hc         1 DZQ       0.051700
     37 H12        125.8570   115.8980    91.6360 hc         1 DZQ       0.051700
     38 H13        122.6940   115.3850    93.6520 hc         1 DZQ       0.038700
     39 H14        121.5820   116.0600    92.4420 hc         1 DZQ       0.038700
     40 H15        122.3270   114.4910    92.1640 hc         1 DZQ       0.038700
     41 H16        124.0840   117.3530    93.5010 hn         1 DZQ       0.420000
     42 H18        122.8710   118.9170    91.3110 h1         1 DZQ       0.044700
     43 H19        121.9420   118.2220    92.6480 h1         1 DZQ       0.044700
     44 H20        123.5830   120.2180    95.1380 ho         1 DZQ       0.446000
     45 H21        120.7470   119.8290    94.2870 ha         1 DZQ       0.133000
     46 H22        118.7540   120.6980    94.6640 ho         1 DZQ       0.470000
     47 H23        119.4620   123.6640    92.7940 ha         1 DZQ       0.137000
     48 H24        124.9700   123.6520    90.8020 h1         1 DZQ       0.084200
     49 H25        124.4150   124.1410    92.4360 h1         1 DZQ       0.084200
     50 H26        120.9670   124.7680    91.1880 hn         1 DZQ       0.167000
     51 H27        124.2470   113.0190    93.3390 ha         1 DZQ       0.111500
     52 O18        118.7580   121.5640    94.2020 oh         1 DZQ      -0.531100
     53 C07        125.0190   115.3460    92.0800 c3         1 DZQ      -0.021100
     54 O02        124.9820   109.9830    90.0400 os         1 DZQ      -0.342100
@<TRIPOS>BOND
     1     1    14 1   
     2     1    26 1   
     3     1    27 1   
     4     1    28 1   
     5     2     3 1   
     6     2    17 1   
     7     2    18 1   
     8     2    29 1   
     9     3     6 ar  
    10     3    19 ar  
    11     4    19 ar  
    12     4    20 ar  
    13     4    52 1   
    14     5     6 ar  
    15     5    20 ar  
    16     5    24 1   
    17     6    21 1   
    18     7    22 1   
    19     7    23 2   
    20     7    24 1   
    21     8    10 ar  
    22     8    25 ar  
    23     8    30 1   
    24     9    31 1   
    25     9    32 1   
    26     9    33 1   
    27     9    54 1   
    28    10    11 ar  
    29    10    54 1   
    30    11    12 ar  
    31    11    34 1   
    32    12    13 ar  
    33    12    35 1   
    34    13    25 ar  
    35    13    53 1   
    36    14    15 1   
    37    14    16 1   
    38    14    53 1   
    39    15    38 1   
    40    15    39 1   
    41    15    40 1   
    42    16    17 1   
    43    16    41 1   
    44    17    42 1   
    45    17    43 1   
    46    18    44 1   
    47    19    45 1   
    48    20    47 1   
    49    21    22 1   
    50    22    48 1   
    51    22    49 1   
    52    24    50 1   
    53    25    51 1   
    54    36    53 1   
    55    37    53 1   
    56    46    52 1   
@<TRIPOS>SUBSTRUCTURE
     1 DZQ         1 TEMP              0 ****  ****    0 ROOT
