@<TRIPOS>MOLECULE
DZQ
   54    56     1     0     0
SMALL
abcg2


@<TRIPOS>ATOM
      1 C10        123.5480   116.6260    90.5470 c3         1 DZQ      -0.103100
      2 C13        123.1200   119.6630    93.6280 c3         1 DZQ       0.216600
      3 C15        122.1890   120.8340    93.3900 ca         1 DZQ      -0.069300
      4 C17        120.2560   122.1520    94.0030 ca         1 DZQ       0.151100
      5 C20        121.5240   122.7330    92.0570 ca         1 DZQ      -0.037000
      6 C21        122.3830   121.6630    92.2950 ca         1 DZQ       0.040100
      7 C24        122.9250   123.5020    90.2480 c          1 DZQ       0.542000
      8 C28        124.4210   111.6860    91.4750 ca         1 DZQ      -0.171500
      9 C01        125.7680   110.2390    88.4290 c3         1 DZQ       0.148900
     10 C03        125.0750   111.5970    90.2440 ca         1 DZQ       0.137100
     11 C04        125.6520   112.7420    89.7020 ca         1 DZQ      -0.171500
     12 C05        125.5640   113.9490    90.3880 ca         1 DZQ      -0.071500
     13 C06        124.9050   114.0610    91.6070 ca         1 DZQ      -0.111300
     14 C08        123.5620   116.2380    92.0220 c3         1 DZQ       0.201200
     15 C09        122.2790   115.4730    92.3620 c3         1 DZQ      -0.103100
     16 N11        123.7380   117.4370    92.8500 n7         1 DZQ      -0.878400
     17 C12        122.7350   118.4770    92.7490 c3         1 DZQ       0.177800
     18 O14        123.0890   119.2190    94.9640 oh         1 DZQ      -0.664000
     19 C16        121.1120   121.0810    94.2370 ca         1 DZQ      -0.196000
     20 C19        120.4640   122.9880    92.9100 ca         1 DZQ      -0.166000
     21 O22        123.3880   121.4150    91.4100 os         1 DZQ      -0.324100
     22 C23        123.9640   122.5720    90.8420 c6         1 DZQ       0.071600
     23 O25        123.1510   124.2030    89.2830 o          1 DZQ      -0.525000
     24 N26        121.7510   123.5090    90.9210 ns         1 DZQ      -0.144000
     25 C27        124.3450   112.8970    92.1380 ca         1 DZQ      -0.071500
     26 H1         124.4310   117.2130    90.2850 hc         1 DZQ       0.038700
     27 H2         123.5370   115.7360    89.9190 hc         1 DZQ       0.038700
     28 H3         122.6640   117.2090    90.2860 hc         1 DZQ       0.038700
     29 H4         124.1380   119.9640    93.3490 h1         1 DZQ       0.064700
     30 H5         123.9810   110.7970    91.9090 ha         1 DZQ       0.120500
     31 H6         125.6880   109.1900    88.1500 h1         1 DZQ       0.039700
     32 H7         125.3070   110.8460    87.6440 h1         1 DZQ       0.039700
     33 H8         126.8270   110.5020    88.4980 h1         1 DZQ       0.039700
     34 H9         126.1770   112.7170    88.7570 ha         1 DZQ       0.120500
     35 H10        126.0290   114.8250    89.9510 ha         1 DZQ       0.111500
     36 H11        124.8310   115.1890    93.4080 hc         1 DZQ       0.051700
     37 H12        125.6890   115.9830    92.1010 hc         1 DZQ       0.051700
     38 H13        122.2810   115.1500    93.4060 hc         1 DZQ       0.038700
     39 H14        121.3960   116.0940    92.2050 hc         1 DZQ       0.038700
     40 H15        122.1630   114.5850    91.7390 hc         1 DZQ       0.038700
     41 H16        123.7960   117.1440    93.8190 hn         1 DZQ       0.420000
     42 H18        122.6790   118.8250    91.7170 h1         1 DZQ       0.044700
     43 H19        121.7180   118.1570    93.0240 h1         1 DZQ       0.044700
     44 H20        123.5170   119.8790    95.5190 ho         1 DZQ       0.446000
     45 H21        120.9530   120.4390    95.0940 ha         1 DZQ       0.133000
     46 H22        119.1650   121.8090    95.5360 ho         1 DZQ       0.470000
     47 H23        119.8000   123.8250    92.7260 ha         1 DZQ       0.137000
     48 H24        124.6430   122.2450    90.0570 h1         1 DZQ       0.084200
     49 H25        124.5450   123.1320    91.5870 h1         1 DZQ       0.084200
     50 H26        121.0360   124.1610    90.6250 hn         1 DZQ       0.167000
     51 H27        123.8410   112.9360    93.0970 ha         1 DZQ       0.111500
     52 O18        119.2060   122.4330    94.8030 oh         1 DZQ      -0.531100
     53 C07        124.8100   115.3750    92.3290 c3         1 DZQ      -0.021100
     54 O02        125.1040   110.3790    89.6660 os         1 DZQ      -0.342100
@<TRIPOS>BOND
     1     1    14 1   
     2     1    26 1   
     3     1    27 1   
     4     1    28 1   
     5     2     3 1   
     6     2    17 1   
     7     2    18 1   
     8     2    29 1   
     9     3     6 ar  
    10     3    19 ar  
    11     4    19 ar  
    12     4    20 ar  
    13     4    52 1   
    14     5     6 ar  
    15     5    20 ar  
    16     5    24 1   
    17     6    21 1   
    18     7    22 1   
    19     7    23 2   
    20     7    24 1   
    21     8    10 ar  
    22     8    25 ar  
    23     8    30 1   
    24     9    31 1   
    25     9    32 1   
    26     9    33 1   
    27     9    54 1   
    28    10    11 ar  
    29    10    54 1   
    30    11    12 ar  
    31    11    34 1   
    32    12    13 ar  
    33    12    35 1   
    34    13    25 ar  
    35    13    53 1   
    36    14    15 1   
    37    14    16 1   
    38    14    53 1   
    39    15    38 1   
    40    15    39 1   
    41    15    40 1   
    42    16    17 1   
    43    16    41 1   
    44    17    42 1   
    45    17    43 1   
    46    18    44 1   
    47    19    45 1   
    48    20    47 1   
    49    21    22 1   
    50    22    48 1   
    51    22    49 1   
    52    24    50 1   
    53    25    51 1   
    54    36    53 1   
    55    37    53 1   
    56    46    52 1   
@<TRIPOS>SUBSTRUCTURE
     1 DZQ         1 TEMP              0 ****  ****    0 ROOT
