@<TRIPOS>MOLECULE
DZR
   53    54     1     0     0
SMALL
No Charge or Current Charge


@<TRIPOS>ATOM
      1 C08          0.4010    -2.3650     0.8350 c6         1 DZR      -0.080700
      2 C09          1.3730    -3.5740     0.8180 c6         1 DZR      -0.071400
      3 C10          0.9480    -1.2570    -0.1040 c6         1 DZR      -0.071400
      4 C11          2.8210    -3.1390     1.1500 c6         1 DZR       0.172300
      5 C12          2.4100    -0.8880     0.2460 c6         1 DZR       0.172300
      6 C13         -1.0480    -2.8050     0.4780 c3         1 DZR       0.103000
      7 C15          5.4230    -0.7470    -0.5360 c          1 DZR       0.597100
      8 C16          5.9460     1.7450    -0.8170 c3         1 DZR       0.140400
      9 C17         -2.5010    -0.9620    -0.4580 c          1 DZR       0.611700
     10 C18          5.2020     1.9410    -2.1620 c3         1 DZR      -0.103767
     11 C19          7.4710     1.6060    -1.0530 c3         1 DZR      -0.103767
     12 C20          5.6850     2.9730     0.0860 c3         1 DZR      -0.103767
     13 C21         -3.4730     0.1510    -0.1140 ca         1 DZR      -0.115600
     14 C22         -3.8750     0.4260     1.2180 ca         1 DZR      -0.104000
     15 C23         -4.0040     0.9560    -1.1520 ca         1 DZR      -0.103000
     16 C24         -4.7770     1.4690     1.4930 ca         1 DZR       0.133000
     17 C25         -4.9040     1.9940    -0.8650 ca         1 DZR       0.176000
     18 C26         -5.2940     2.2540     0.4540 ca         1 DZR      -0.133000
     19 F02         -5.3990     2.7490    -1.8710 f          1 DZR      -0.168000
     20 N05          3.3030    -2.0810     0.2200 n3         1 DZR      -0.699600
     21 N06         -2.0270    -1.7170     0.5940 ns         1 DZR      -0.499900
     22 N07          5.4230     0.5720    -0.1060 ns         1 DZR      -0.516900
     23 O03          5.9140    -1.1050    -1.6010 o          1 DZR      -0.581100
     24 O04         -2.1520    -1.1820    -1.6100 o          1 DZR      -0.589100
     25 Cl1         -5.2610     1.7910     3.1530 cl         1 DZR      -0.187000
     26 H1           0.3630    -1.9680     1.8600 hc         1 DZR       0.038700
     27 H2           1.0460    -4.3330     1.5410 hc         1 DZR       0.054200
     28 H3           1.3570    -4.0550    -0.1700 hc         1 DZR       0.054200
     29 H4           0.8990    -1.5920    -1.1490 hc         1 DZR       0.054200
     30 H5           0.3270    -0.3540    -0.0350 hc         1 DZR       0.054200
     31 H6           2.8570    -2.7770     2.1880 h1         1 DZR       0.030950
     32 H7           3.4740    -4.0220     1.0920 h1         1 DZR       0.030950
     33 H8           2.7550    -0.1340    -0.4760 h1         1 DZR       0.030950
     34 H9           2.4330    -0.4180     1.2410 h1         1 DZR       0.030950
     35 H10         -1.0640    -3.2140    -0.5410 h1         1 DZR       0.058200
     36 H11         -1.3520    -3.6100     1.1620 h1         1 DZR       0.058200
     37 H12          5.3450    -2.6640     0.4110 h1         1 DZR       0.041700
     38 H13          4.8720    -1.3370     1.4630 h1         1 DZR       0.041700
     39 H14          4.1180     1.9920    -2.0040 hc         1 DZR       0.044144
     40 H15          5.5180     2.8720    -2.6480 hc         1 DZR       0.044144
     41 H16          5.4050     1.1210    -2.8600 hc         1 DZR       0.044144
     42 H17          7.7020     0.7820    -1.7370 hc         1 DZR       0.044144
     43 H18          7.8810     2.5230    -1.4920 hc         1 DZR       0.044144
     44 H19          7.9960     1.4190    -0.1080 hc         1 DZR       0.044144
     45 H20          6.1930     2.8650     1.0520 hc         1 DZR       0.044144
     46 H21          6.0520     3.8930    -0.3870 hc         1 DZR       0.044144
     47 H22          4.6120     3.0980     0.2780 hc         1 DZR       0.044144
     48 H23         -3.5000    -0.1560     2.0550 ha         1 DZR       0.134000
     49 H24         -3.7210     0.7790    -2.1870 ha         1 DZR       0.157000
     50 H25         -5.9900     3.0600     0.6690 ha         1 DZR       0.150000
     51 H27         -2.3660    -1.4800     1.5170 hn         1 DZR       0.313500
     52 H28          4.9870     0.7350     0.7930 hn         1 DZR       0.305500
     53 C14          4.7460    -1.7450     0.4500 c3         1 DZR       0.089800
@<TRIPOS>BOND
     1     1     2 1   
     2     1     3 1   
     3     1     6 1   
     4     1    26 1   
     5     2     4 1   
     6     2    27 1   
     7     2    28 1   
     8     3     5 1   
     9     3    29 1   
    10     3    30 1   
    11     4    20 1   
    12     4    31 1   
    13     4    32 1   
    14     5    20 1   
    15     5    33 1   
    16     5    34 1   
    17     6    21 1   
    18     6    35 1   
    19     6    36 1   
    20     7    22 1   
    21     7    23 2   
    22     7    53 1   
    23     8    10 1   
    24     8    11 1   
    25     8    12 1   
    26     8    22 1   
    27     9    13 1   
    28     9    21 1   
    29     9    24 2   
    30    10    39 1   
    31    10    40 1   
    32    10    41 1   
    33    11    42 1   
    34    11    43 1   
    35    11    44 1   
    36    12    45 1   
    37    12    46 1   
    38    12    47 1   
    39    13    14 ar  
    40    13    15 ar  
    41    14    16 ar  
    42    14    48 1   
    43    15    17 ar  
    44    15    49 1   
    45    16    18 ar  
    46    16    25 1   
    47    17    18 ar  
    48    17    19 1   
    49    18    50 1   
    50    20    53 1   
    51    21    51 1   
    52    22    52 1   
    53    37    53 1   
    54    38    53 1   
@<TRIPOS>SUBSTRUCTURE
     1 DZR         1 TEMP              0 ****  ****    0 ROOT
