@<TRIPOS>MOLECULE
DZR
   53    54     1     0     0
SMALL
abcg2


@<TRIPOS>ATOM
      1 C08          0.2420    -2.1020     0.5680 c6         1 DZR      -0.080700
      2 C09          1.2980    -3.2000     0.5150 c6         1 DZR      -0.071400
      3 C10          0.7690    -0.8630    -0.1480 c6         1 DZR      -0.071400
      4 C11          2.6270    -2.7010     1.0590 c6         1 DZR       0.172300
      5 C12          2.1210    -0.4460     0.4090 c6         1 DZR       0.172300
      6 C13         -1.0800    -2.5940    -0.0070 c3         1 DZR       0.103000
      7 C15          5.0590    -0.2190    -0.3050 c          1 DZR       0.597100
      8 C16          6.7520     1.6210    -0.5390 c3         1 DZR       0.140400
      9 C17         -3.1610    -1.4430    -0.6510 c          1 DZR       0.611700
     10 C18          5.9120     2.5810    -1.3830 c3         1 DZR      -0.103767
     11 C19          7.7400     0.8510    -1.4170 c3         1 DZR      -0.103767
     12 C20          7.5310     2.4220     0.5030 c3         1 DZR      -0.103767
     13 C21         -4.1180    -0.3510    -0.2720 ca         1 DZR      -0.115600
     14 C22         -3.6910     0.8060     0.3720 ca         1 DZR      -0.104000
     15 C23         -5.4550    -0.5100    -0.6190 ca         1 DZR      -0.103000
     16 C24         -4.6190     1.7890     0.6780 ca         1 DZR       0.133000
     17 C25         -6.3450     0.4870    -0.2810 ca         1 DZR       0.176000
     18 C26         -5.9610     1.6470     0.3650 ca         1 DZR      -0.133000
     19 F02         -7.6370     0.3330    -0.5900 f          1 DZR      -0.168000
     20 N05          3.0820    -1.5310     0.3300 n3         1 DZR      -0.699600
     21 N06         -2.1230    -1.6080     0.1800 ns         1 DZR      -0.499900
     22 N07          5.8910     0.6980     0.2100 ns         1 DZR      -0.516900
     23 O03          4.8620    -0.3820    -1.5000 o          1 DZR      -0.581100
     24 O04         -3.3490    -2.1160    -1.6540 o          1 DZR      -0.589100
     25 CL1         -4.0900     3.2330     1.4640 cl         1 DZR      -0.187000
     26 H1           0.0810    -1.8490     1.6250 hc         1 DZR       0.038700
     27 H2           0.9760    -4.0690     1.0940 hc         1 DZR       0.054200
     28 H3           1.4330    -3.5340    -0.5190 hc         1 DZR       0.054200
     29 H4           0.8710    -1.0770    -1.2170 hc         1 DZR       0.054200
     30 H5           0.0710    -0.0290    -0.0540 hc         1 DZR       0.054200
     31 H6           2.5190    -2.4940     2.1390 h1         1 DZR       0.030950
     32 H7           3.3820    -3.4860     0.9640 h1         1 DZR       0.030950
     33 H8           2.4950     0.4080    -0.1610 h1         1 DZR       0.030950
     34 H9           1.9960    -0.1000     1.4510 h1         1 DZR       0.030950
     35 H10         -0.9750    -2.7940    -1.0740 h1         1 DZR       0.058200
     36 H11         -1.3640    -3.5370     0.4720 h1         1 DZR       0.058200
     37 H12          5.0360    -1.9960     0.8360 h1         1 DZR       0.041700
     38 H13          4.3980    -0.6250     1.7280 h1         1 DZR       0.041700
     39 H14          5.2210     3.1440    -0.7540 hc         1 DZR       0.044144
     40 H15          6.5620     3.2950    -1.8900 hc         1 DZR       0.044144
     41 H16          5.3340     2.0540    -2.1410 hc         1 DZR       0.044144
     42 H17          7.2330     0.2590    -2.1770 hc         1 DZR       0.044144
     43 H18          8.4060     1.5490    -1.9260 hc         1 DZR       0.044144
     44 H19          8.3540     0.1820    -0.8120 hc         1 DZR       0.044144
     45 H20          8.1420     1.7700     1.1290 hc         1 DZR       0.044144
     46 H21          8.1970     3.1300     0.0090 hc         1 DZR       0.044144
     47 H22          6.8600     2.9910     1.1500 hc         1 DZR       0.044144
     48 H23         -2.6480     0.9630     0.6110 ha         1 DZR       0.134000
     49 H24         -5.7980    -1.3990    -1.1300 ha         1 DZR       0.157000
     50 H25         -6.6850     2.4120     0.6100 ha         1 DZR       0.150000
     51 H27         -2.1380    -1.1310     1.0680 hn         1 DZR       0.313500
     52 H28          5.9400     0.7560     1.2150 hn         1 DZR       0.305500
     53 C14          4.3950    -1.1130     0.7390 c3         1 DZR       0.089800
@<TRIPOS>BOND
     1     1     2 1   
     2     1     3 1   
     3     1     6 1   
     4     1    26 1   
     5     2     4 1   
     6     2    27 1   
     7     2    28 1   
     8     3     5 1   
     9     3    29 1   
    10     3    30 1   
    11     4    20 1   
    12     4    31 1   
    13     4    32 1   
    14     5    20 1   
    15     5    33 1   
    16     5    34 1   
    17     6    21 1   
    18     6    35 1   
    19     6    36 1   
    20     7    22 1   
    21     7    23 2   
    22     7    53 1   
    23     8    10 1   
    24     8    11 1   
    25     8    12 1   
    26     8    22 1   
    27     9    13 1   
    28     9    21 1   
    29     9    24 2   
    30    10    39 1   
    31    10    40 1   
    32    10    41 1   
    33    11    42 1   
    34    11    43 1   
    35    11    44 1   
    36    12    45 1   
    37    12    46 1   
    38    12    47 1   
    39    13    14 ar  
    40    13    15 ar  
    41    14    16 ar  
    42    14    48 1   
    43    15    17 ar  
    44    15    49 1   
    45    16    18 ar  
    46    16    25 1   
    47    17    18 ar  
    48    17    19 1   
    49    18    50 1   
    50    20    53 1   
    51    21    51 1   
    52    22    52 1   
    53    37    53 1   
    54    38    53 1   
@<TRIPOS>SUBSTRUCTURE
     1 DZR         1 TEMP              0 ****  ****    0 ROOT
