@<TRIPOS>MOLECULE
DZS
   46    50     1     0     0
SMALL
abcg2


@<TRIPOS>ATOM
      1 C2           0.2900     3.9860    -1.4190 ca         1 DZS      -0.150000
      2 C3          -0.8570     3.4520    -0.8680 ca         1 DZS      -0.038000
      3 C4          -0.8230     2.2140    -0.2280 ca         1 DZS      -0.196600
      4 C5           0.3890     1.5250    -0.1310 ca         1 DZS       0.088800
      5 C6           1.5410     2.0470    -0.7080 ca         1 DZS      -0.121000
      6 C7          -0.8140    -0.2730     0.9300 cc         1 DZS       0.513400
      7 C8          -2.0860     1.6410     0.2750 c          1 DZS       0.591600
      8 C11         -3.9420    -1.1860    -1.1870 ca         1 DZS       0.134000
      9 C12         -4.8720    -1.3250    -2.2070 ca         1 DZS      -0.112000
     10 C13         -6.1250    -0.7480    -2.0700 ca         1 DZS      -0.101000
     11 C14         -6.4370    -0.0380    -0.9190 ca         1 DZS      -0.120000
     12 C17          2.7700    -0.4510     0.8050 ca         1 DZS      -0.225500
     13 C18          3.4940    -1.3340     0.0140 ca         1 DZS      -0.010000
     14 C19          4.8770    -1.2450    -0.0970 ca         1 DZS      -0.169600
     15 C20          5.6540    -2.2140    -0.9750 c          1 DZS       0.716600
     16 C21          5.5230    -0.2420     0.6190 ca         1 DZS      -0.030000
     17 C22          4.8240     0.6420     1.4260 ca         1 DZS      -0.240000
     18 C23          3.4420     0.5380     1.5320 ca         1 DZS       0.126100
     19 C1           1.4820     3.2730    -1.3450 ca         1 DZS      -0.064000
     20 N1           0.3540     0.3030     0.5430 na         1 DZS      -0.276800
     21 N2          -2.0160     0.3470     0.7330 n          1 DZS      -0.371300
     22 O1          -3.1420     2.2390     0.2550 o          1 DZS      -0.543000
     23 C9          -3.2480    -0.3440     1.1110 c3         1 DZS       0.161300
     24 C10         -4.2260    -0.4730    -0.0260 ca         1 DZS      -0.089300
     25 C15         -5.4910     0.0980     0.0840 ca         1 DZS      -0.073000
     26 N3          -0.6070    -1.4220     1.4940 nd         1 DZS      -0.405000
     27 N4           0.7380    -1.6180     1.4950 nd         1 DZS      -0.332000
     28 C16          1.3190    -0.6000     0.9420 cc         1 DZS       0.510000
     29 O2           6.8890    -2.0590    -1.0150 o          1 DZS      -0.714000
     30 O3           4.9870    -3.0780    -1.5770 o          1 DZS      -0.714000
     31 O4           2.6950     1.3510     2.2960 oh         1 DZS      -0.547100
     32 H1           0.2570     4.9450    -1.9180 ha         1 DZS       0.114000
     33 H2          -1.7960     3.9830    -0.9400 ha         1 DZS       0.132000
     34 H3           2.4750     1.5080    -0.6850 ha         1 DZS       0.159000
     35 H4          -4.6200    -1.8850    -3.0970 ha         1 DZS       0.127000
     36 H5          -6.8530    -0.8580    -2.8620 ha         1 DZS       0.110000
     37 H6          -7.4130     0.4150    -0.8050 ha         1 DZS       0.111000
     38 H7           2.9650    -2.1030    -0.5340 ha         1 DZS       0.147000
     39 H8           6.5990    -0.1480     0.5470 ha         1 DZS       0.133000
     40 H9           5.3530     1.4100     1.9780 ha         1 DZS       0.095000
     41 H10          2.3810     3.6730    -1.7940 ha         1 DZS       0.120000
     42 H11         -2.9630    -1.3270     1.4820 h1         1 DZS       0.079200
     43 H12         -3.7130     0.1900     1.9390 h1         1 DZS       0.079200
     44 H13         -5.7330     0.6620     0.9760 ha         1 DZS       0.118000
     45 H15          3.2460     2.0140     2.7280 ho         1 DZS       0.454000
     46 CL1         -2.3950    -1.9460    -1.3820 cl         1 DZS      -0.176000
@<TRIPOS>BOND
     1     1     2 ar  
     2     1    19 ar  
     3     1    32 1   
     4     2     3 ar  
     5     2    33 1   
     6     3     4 ar  
     7     3     7 1   
     8     4     5 ar  
     9     4    20 1   
    10     5    19 ar  
    11     5    34 1   
    12     6    20 1   
    13     6    21 1   
    14     6    26 2   
    15     7    21 1   
    16     7    22 2   
    17     8     9 ar  
    18     8    24 ar  
    19     8    46 1   
    20     9    10 ar  
    21     9    35 1   
    22    10    11 ar  
    23    10    36 1   
    24    11    25 ar  
    25    11    37 1   
    26    12    13 ar  
    27    12    18 ar  
    28    12    28 1   
    29    13    14 ar  
    30    13    38 1   
    31    14    15 1   
    32    14    16 ar  
    33    15    29 1   
    34    15    30 1   
    35    16    17 ar  
    36    16    39 1   
    37    17    18 ar  
    38    17    40 1   
    39    18    31 1   
    40    19    41 1   
    41    20    28 1   
    42    21    23 1   
    43    23    24 1   
    44    23    42 1   
    45    23    43 1   
    46    24    25 ar  
    47    25    44 1   
    48    26    27 1   
    49    27    28 2   
    50    31    45 1   
@<TRIPOS>SUBSTRUCTURE
     1 DZS         1 TEMP              0 ****  ****    0 ROOT
