@<TRIPOS>MOLECULE
DZS
   46    50     1     0     0
SMALL
No Charge or Current Charge


@<TRIPOS>ATOM
      1 C2           0.3770     4.0140    -1.3640 ca         1 DZS      -0.150000
      2 C3          -0.7890     3.4830    -0.7940 ca         1 DZS      -0.038000
      3 C4          -0.7840     2.1860    -0.2350 ca         1 DZS      -0.196600
      4 C5           0.4130     1.4350    -0.2140 ca         1 DZS       0.088800
      5 C6           1.5660     1.9620    -0.8380 ca         1 DZS      -0.121000
      6 C7          -0.8110    -0.4180     0.7300 cc         1 DZS       0.513400
      7 C8          -2.0650     1.5860     0.2940 c          1 DZS       0.591600
      8 C11         -4.2050    -1.3630    -1.1450 ca         1 DZS       0.134000
      9 C12         -5.2080    -1.4170    -2.1290 ca         1 DZS      -0.112000
     10 C13         -6.3710    -0.6410    -1.9990 ca         1 DZS      -0.101000
     11 C14         -6.5330     0.1900    -0.8810 ca         1 DZS      -0.120000
     12 C17          2.8200    -0.4600     0.7310 ca         1 DZS      -0.225500
     13 C18          3.6560    -1.3490     0.0230 ca         1 DZS      -0.010000
     14 C19          5.0590    -1.1720     0.0070 ca         1 DZS      -0.169600
     15 C20          5.9480    -2.1210    -0.7730 c          1 DZS       0.716600
     16 C21          5.6140    -0.0960     0.7340 ca         1 DZS      -0.030000
     17 C22          4.7860     0.7700     1.4670 ca         1 DZS      -0.240000
     18 C23          3.3990     0.5850     1.4740 ca         1 DZS       0.126100
     19 C1           1.5500     3.2490    -1.4000 ca         1 DZS      -0.064000
     20 N1           0.3610     0.1730     0.3850 na         1 DZS      -0.276800
     21 N2          -2.0320     0.2300     0.6620 n          1 DZS      -0.371300
     22 O1          -3.0870     2.2540     0.3810 o          1 DZS      -0.543000
     23 C9          -3.2900    -0.4390     1.0780 c3         1 DZS       0.161300
     24 C10         -4.3580    -0.5240    -0.0160 ca         1 DZS      -0.089300
     25 C15         -5.5330     0.2480     0.1050 ca         1 DZS      -0.073000
     26 N3          -0.5610    -1.6390     1.1740 nd         1 DZS      -0.405000
     27 N4           0.8110    -1.8170     1.1600 nd         1 DZS      -0.332000
     28 C16          1.3760    -0.6910     0.7380 cc         1 DZS       0.510000
     29 O2           7.1570    -1.9400    -0.7510 o          1 DZS      -0.714000
     30 O3           5.4230    -3.0330    -1.3950 o          1 DZS      -0.714000
     31 O4           2.6270     1.4130     2.2290 oh         1 DZS      -0.547100
     32 H1           0.3640     5.0110    -1.8000 ha         1 DZS       0.114000
     33 H2          -1.7030     4.0750    -0.8060 ha         1 DZS       0.132000
     34 H3           2.4830     1.3900    -0.9120 ha         1 DZS       0.159000
     35 H4          -5.0820    -2.0640    -2.9930 ha         1 DZS       0.127000
     36 H5          -7.1450    -0.6860    -2.7630 ha         1 DZS       0.110000
     37 H6          -7.4330     0.7920    -0.7770 ha         1 DZS       0.111000
     38 H7           3.2070    -2.1740    -0.5280 ha         1 DZS       0.147000
     39 H8           6.6910     0.0660     0.7430 ha         1 DZS       0.133000
     40 H9           5.2360     1.5810     2.0350 ha         1 DZS       0.095000
     41 H10          2.4470     3.6490    -1.8680 ha         1 DZS       0.120000
     42 H11         -3.0810    -1.4560     1.4310 h1         1 DZS       0.079200
     43 H12         -3.6970     0.1040     1.9410 h1         1 DZS       0.079200
     44 H13         -5.6720     0.9000     0.9650 ha         1 DZS       0.118000
     45 H15          3.2160     2.0600     2.6720 ho         1 DZS       0.454000
     46 Cl1         -2.7740    -2.3680    -1.3600 cl         1 DZS      -0.176000
@<TRIPOS>BOND
     1     1     2 ar  
     2     1    19 ar  
     3     1    32 1   
     4     2     3 ar  
     5     2    33 1   
     6     3     4 ar  
     7     3     7 1   
     8     4     5 ar  
     9     4    20 1   
    10     5    19 ar  
    11     5    34 1   
    12     6    20 1   
    13     6    21 1   
    14     6    26 2   
    15     7    21 1   
    16     7    22 2   
    17     8     9 ar  
    18     8    24 ar  
    19     8    46 1   
    20     9    10 ar  
    21     9    35 1   
    22    10    11 ar  
    23    10    36 1   
    24    11    25 ar  
    25    11    37 1   
    26    12    13 ar  
    27    12    18 ar  
    28    12    28 1   
    29    13    14 ar  
    30    13    38 1   
    31    14    15 1   
    32    14    16 ar  
    33    15    29 1   
    34    15    30 1   
    35    16    17 ar  
    36    16    39 1   
    37    17    18 ar  
    38    17    40 1   
    39    18    31 1   
    40    19    41 1   
    41    20    28 1   
    42    21    23 1   
    43    23    24 1   
    44    23    42 1   
    45    23    43 1   
    46    24    25 ar  
    47    25    44 1   
    48    26    27 1   
    49    27    28 2   
    50    31    45 1   
@<TRIPOS>SUBSTRUCTURE
     1 DZS         1 TEMP              0 ****  ****    0 ROOT
