@<TRIPOS>MOLECULE
DZT
   79    80     1     0     0
SMALL
No Charge or Current Charge


@<TRIPOS>ATOM
      1 C2           9.0050     3.2870    -1.3250 c3         1 DZT      -0.088100
      2 C3           7.9200     3.2970    -0.2310 c3         1 DZT      -0.075400
      3 C4           6.5810     2.6870    -0.7010 c3         1 DZT      -0.075400
      4 C5           5.4940     2.6970     0.3960 c3         1 DZT      -0.076400
      5 C6           4.1550     2.0870    -0.0750 c3         1 DZT      -0.074400
      6 C7           3.0660     2.0950     1.0250 c3         1 DZT      -0.041200
      7 C8           1.7380     1.4840     0.5790 ce         1 DZT      -0.044400
      8 O9          -8.3670    -0.6280    -1.7350 oh         1 DZT      -0.660000
      9 C10         -8.1880    -1.1220    -0.4070 c3         1 DZT       0.184000
     10 C11         -9.5930    -1.3110     0.2110 c3         1 DZT      -0.100100
     11 C12         -7.4630    -2.4860    -0.5000 c3         1 DZT      -0.100100
     12 C13         -7.3790    -0.0740     0.4150 c3         1 DZT      -0.102400
     13 C14         -5.9580     0.2630    -0.1120 c3         1 DZT      -0.071400
     14 C15         -5.2520     1.3530     0.7240 c3         1 DZT      -0.077400
     15 C16         -3.8350     1.6860     0.2090 c3         1 DZT      -0.073400
     16 C18         -1.7280     3.0790     0.5210 ca         1 DZT      -0.078300
     17 C19         -0.6660     2.1910     0.7770 ca         1 DZT      -0.100000
     18 C20         -1.4870     4.2470    -0.2260 ca         1 DZT      -0.104000
     19 C21         -0.1970     4.5210    -0.7080 ca         1 DZT      -0.111000
     20 C22          0.8580     3.6300    -0.4490 ca         1 DZT      -0.103000
     21 C23          0.6330     2.4530     0.2960 ca         1 DZT      -0.046800
     22 C24          1.5600     0.1310     0.4910 cf         1 DZT      -0.174000
     23 C25          2.5400    -0.9180     0.7810 cf         1 DZT      -0.172000
     24 C26          2.3150    -2.2640     0.7310 ce         1 DZT      -0.057200
     25 C27          1.0210    -2.9120     0.4430 ce         1 DZT      -0.125200
     26 C28         -0.1230    -2.6030     1.0940 c2         1 DZT      -0.295000
     27 C29          1.0700    -4.0190    -0.6200 c6         1 DZT       0.211500
     28 O30          1.2530    -3.4230    -1.9060 oh         1 DZT      -0.655000
     29 C31          2.2030    -5.0290    -0.3160 c6         1 DZT      -0.065400
     30 C32          3.5610    -4.3240    -0.0800 c6         1 DZT       0.176300
     31 O33          4.5590    -5.2920     0.2670 oh         1 DZT      -0.661000
     32 C34          3.4370    -3.2630     1.0430 c6         1 DZT      -0.076200
     33 H1           9.9340     3.7280    -0.9450 hc         1 DZT       0.031700
     34 H2           9.2190     2.2620    -1.6490 hc         1 DZT       0.031700
     35 H3           8.6810     3.8670    -2.1970 hc         1 DZT       0.031700
     36 H4           8.2870     2.7390     0.6400 hc         1 DZT       0.036200
     37 H5           7.7530     4.3300     0.0970 hc         1 DZT       0.036200
     38 H6           6.2180     3.2450    -1.5730 hc         1 DZT       0.038200
     39 H7           6.7520     1.6540    -1.0300 hc         1 DZT       0.038200
     40 H8           5.8570     2.1380     1.2680 hc         1 DZT       0.036200
     41 H9           5.3230     3.7290     0.7250 hc         1 DZT       0.036200
     42 H10          3.7960     2.6420    -0.9490 hc         1 DZT       0.043700
     43 H11          4.3300     1.0580    -0.4120 hc         1 DZT       0.043700
     44 H12          3.4440     1.5640     1.9070 hc         1 DZT       0.047200
     45 H13          2.9140     3.1290     1.3600 hc         1 DZT       0.047200
     46 H14         -8.7570     0.2680    -1.6540 ho         1 DZT       0.438000
     47 H15        -10.1920    -2.0130    -0.3820 hc         1 DZT       0.041367
     48 H16         -9.5180    -1.7090     1.2300 hc         1 DZT       0.041367
     49 H17        -10.1360    -0.3590     0.2590 hc         1 DZT       0.041367
     50 H18         -6.5200    -2.4020    -1.0540 hc         1 DZT       0.041367
     51 H19         -7.2390    -2.8760     0.5010 hc         1 DZT       0.041367
     52 H20         -8.0860    -3.2240    -1.0200 hc         1 DZT       0.041367
     53 H21         -7.9580     0.8570     0.4690 hc         1 DZT       0.039700
     54 H22         -7.2880    -0.4340     1.4480 hc         1 DZT       0.039700
     55 H23         -5.3370    -0.6410    -0.1030 hc         1 DZT       0.046200
     56 H24         -6.0210     0.5990    -1.1550 hc         1 DZT       0.046200
     57 H25         -5.8620     2.2650     0.7160 hc         1 DZT       0.035700
     58 H26         -5.1870     1.0200     1.7680 hc         1 DZT       0.035700
     59 H27         -3.2270     0.7730     0.2140 hc         1 DZT       0.043200
     60 H28         -3.8980     2.0230    -0.8330 hc         1 DZT       0.043200
     61 H29         -3.7390     3.6800     1.0520 hc         1 DZT       0.045700
     62 H30         -3.0620     2.4380     2.0890 hc         1 DZT       0.045700
     63 H31         -0.8540     1.2930     1.3620 ha         1 DZT       0.110000
     64 H32         -2.2970     4.9410    -0.4350 ha         1 DZT       0.112000
     65 H33         -0.0140     5.4240    -1.2850 ha         1 DZT       0.112000
     66 H34          1.8470     3.8570    -0.8370 ha         1 DZT       0.115000
     67 H35          0.5800    -0.2110     0.1580 ha         1 DZT       0.175000
     68 H36          3.5450    -0.5940     1.0460 ha         1 DZT       0.174000
     69 H37         -0.1490    -1.8390     1.8720 ha         1 DZT       0.168500
     70 H38         -1.0650    -3.1080     0.8790 ha         1 DZT       0.168500
     71 H39          0.1160    -4.5680    -0.6080 h1         1 DZT       0.037700
     72 H40          0.7060    -2.6090    -1.8990 ho         1 DZT       0.445000
     73 H41          1.9320    -5.6080     0.5770 hc         1 DZT       0.062700
     74 H42          2.2900    -5.7510    -1.1390 hc         1 DZT       0.062700
     75 H43          3.8490    -3.8090    -1.0090 h1         1 DZT       0.050700
     76 H44          5.4110    -4.8080     0.3320 ho         1 DZT       0.442000
     77 H45          4.3960    -2.7430     1.1670 hc         1 DZT       0.052700
     78 H46          3.2240    -3.7550     2.0020 hc         1 DZT       0.052700
     79 C17         -3.1240     2.7720     1.0460 c3         1 DZT      -0.031100
@<TRIPOS>BOND
     1     1     2 1   
     2     1    33 1   
     3     1    34 1   
     4     1    35 1   
     5     2     3 1   
     6     2    36 1   
     7     2    37 1   
     8     3     4 1   
     9     3    38 1   
    10     3    39 1   
    11     4     5 1   
    12     4    40 1   
    13     4    41 1   
    14     5     6 1   
    15     5    42 1   
    16     5    43 1   
    17     6     7 1   
    18     6    44 1   
    19     6    45 1   
    20     7    21 1   
    21     7    22 2   
    22     8     9 1   
    23     8    46 1   
    24     9    10 1   
    25     9    11 1   
    26     9    12 1   
    27    10    47 1   
    28    10    48 1   
    29    10    49 1   
    30    11    50 1   
    31    11    51 1   
    32    11    52 1   
    33    12    13 1   
    34    12    53 1   
    35    12    54 1   
    36    13    14 1   
    37    13    55 1   
    38    13    56 1   
    39    14    15 1   
    40    14    57 1   
    41    14    58 1   
    42    15    59 1   
    43    15    60 1   
    44    15    79 1   
    45    16    17 ar  
    46    16    18 ar  
    47    16    79 1   
    48    17    21 ar  
    49    17    63 1   
    50    18    19 ar  
    51    18    64 1   
    52    19    20 ar  
    53    19    65 1   
    54    20    21 ar  
    55    20    66 1   
    56    22    23 1   
    57    22    67 1   
    58    23    24 2   
    59    23    68 1   
    60    24    25 1   
    61    24    32 1   
    62    25    26 2   
    63    25    27 1   
    64    26    69 1   
    65    26    70 1   
    66    27    28 1   
    67    27    29 1   
    68    27    71 1   
    69    28    72 1   
    70    29    30 1   
    71    29    73 1   
    72    29    74 1   
    73    30    31 1   
    74    30    32 1   
    75    30    75 1   
    76    31    76 1   
    77    32    77 1   
    78    32    78 1   
    79    61    79 1   
    80    62    79 1   
@<TRIPOS>SUBSTRUCTURE
     1 DZT         1 TEMP              0 ****  ****    0 ROOT
