@<TRIPOS>MOLECULE
DZT
   79    80     1     0     0
SMALL
abcg2


@<TRIPOS>ATOM
      1 C2           8.4240     3.3790    -2.3050 c3         1 DZT      -0.088100
      2 C3           7.6070     3.3180    -1.0220 c3         1 DZT      -0.075400
      3 C4           6.2190     2.7240    -1.2270 c3         1 DZT      -0.075400
      4 C5           5.3970     2.6680     0.0550 c3         1 DZT      -0.076400
      5 C6           4.0210     2.0470    -0.1400 c3         1 DZT      -0.074400
      6 C7           3.2110     2.0080     1.1610 c3         1 DZT      -0.041200
      7 C8           1.8520     1.3710     1.0090 ce         1 DZT      -0.044400
      8 O9          -8.3710     0.2290    -2.1270 oh         1 DZT      -0.660000
      9 C10         -8.2450    -0.6660    -1.0260 c3         1 DZT       0.184000
     10 C11         -9.6270    -0.9770    -0.4520 c3         1 DZT      -0.100100
     11 C12         -7.6290    -1.9410    -1.5880 c3         1 DZT      -0.100100
     12 C13         -7.3680    -0.0490     0.0730 c3         1 DZT      -0.102400
     13 C14         -5.9750     0.3950    -0.3590 c3         1 DZT      -0.071400
     14 C15         -5.2110     1.0740     0.7720 c3         1 DZT      -0.077400
     15 C16         -3.8200     1.5330     0.3570 c3         1 DZT      -0.073400
     16 C18         -1.7030     2.6970     1.0540 ca         1 DZT      -0.078300
     17 C19         -0.5920     1.8840     1.2390 ca         1 DZT      -0.100000
     18 C20         -1.5310     3.9300     0.4270 ca         1 DZT      -0.104000
     19 C21         -0.2710     4.3310     0.0110 ca         1 DZT      -0.111000
     20 C22          0.8300     3.5100     0.2070 ca         1 DZT      -0.103000
     21 C23          0.6870     2.2590     0.8130 ca         1 DZT      -0.046800
     22 C24          1.6870     0.0320     1.0090 cf         1 DZT      -0.174000
     23 C25          2.7420    -0.9420     1.1760 cf         1 DZT      -0.172000
     24 C26          2.5880    -2.2790     1.2120 ce         1 DZT      -0.057200
     25 C27          1.2950    -2.9830     1.1330 ce         1 DZT      -0.125200
     26 C28          0.2720    -2.7610     1.9560 c2         1 DZT      -0.295000
     27 C29          1.2260    -4.0310     0.0460 c6         1 DZT       0.211500
     28 O30          1.2480    -3.4130    -1.2280 oh         1 DZT      -0.655000
     29 C31          2.4240    -4.9680     0.1220 c6         1 DZT      -0.065400
     30 C32          3.7450    -4.2130     0.1290 c6         1 DZT       0.176300
     31 O33          4.7790    -5.1670     0.2460 oh         1 DZT      -0.661000
     32 C34          3.7700    -3.2060     1.2830 c6         1 DZT      -0.076200
     33 H1           9.4110     3.8090    -2.1320 hc         1 DZT       0.031700
     34 H2           8.5680     2.3830    -2.7280 hc         1 DZT       0.031700
     35 H3           7.9270     3.9880    -3.0620 hc         1 DZT       0.031700
     36 H4           8.1450     2.7280    -0.2730 hc         1 DZT       0.036200
     37 H5           7.5110     4.3240    -0.6010 hc         1 DZT       0.036200
     38 H6           5.6810     3.3090    -1.9800 hc         1 DZT       0.038200
     39 H7           6.3160     1.7140    -1.6410 hc         1 DZT       0.038200
     40 H8           5.9450     2.0970     0.8130 hc         1 DZT       0.036200
     41 H9           5.2870     3.6800     0.4590 hc         1 DZT       0.036200
     42 H10          3.4720     2.6050    -0.9040 hc         1 DZT       0.043700
     43 H11          4.1290     1.0300    -0.5290 hc         1 DZT       0.043700
     44 H12          3.7880     1.4720     1.9180 hc         1 DZT       0.047200
     45 H13          3.1040     3.0250     1.5480 hc         1 DZT       0.047200
     46 H14         -8.7400     1.0560    -1.7990 ho         1 DZT       0.438000
     47 H15        -10.2750    -1.4170    -1.2130 hc         1 DZT       0.041367
     48 H16         -9.5590    -1.6810     0.3790 hc         1 DZT       0.041367
     49 H17        -10.1120    -0.0720    -0.0760 hc         1 DZT       0.041367
     50 H18         -6.6480    -1.7630    -2.0300 hc         1 DZT       0.041367
     51 H19         -7.5100    -2.6860    -0.8000 hc         1 DZT       0.041367
     52 H20         -8.2720    -2.3730    -2.3570 hc         1 DZT       0.041367
     53 H21         -7.8990     0.8160     0.4910 hc         1 DZT       0.039700
     54 H22         -7.2820    -0.7680     0.8940 hc         1 DZT       0.039700
     55 H23         -5.3960    -0.4630    -0.7140 hc         1 DZT       0.046200
     56 H24         -6.0520     1.0850    -1.2040 hc         1 DZT       0.046200
     57 H25         -5.7850     1.9360     1.1320 hc         1 DZT       0.035700
     58 H26         -5.1290     0.3880     1.6220 hc         1 DZT       0.035700
     59 H27         -3.2340     0.6730     0.0170 hc         1 DZT       0.043200
     60 H28         -3.8970     2.2100    -0.4990 hc         1 DZT       0.043200
     61 H29         -3.6550     3.0970     1.8270 hc         1 DZT       0.045700
     62 H30         -2.9790     1.5610     2.3400 hc         1 DZT       0.045700
     63 H31         -0.7240     0.9420     1.7600 ha         1 DZT       0.110000
     64 H32         -2.3840     4.5820     0.2770 ha         1 DZT       0.112000
     65 H33         -0.1400     5.2930    -0.4690 ha         1 DZT       0.112000
     66 H34          1.8010     3.8500    -0.1270 ha         1 DZT       0.115000
     67 H35          0.6950    -0.3670     0.8360 ha         1 DZT       0.175000
     68 H36          3.7600    -0.5710     1.2440 ha         1 DZT       0.174000
     69 H37          0.3210    -2.0260     2.7490 ha         1 DZT       0.168500
     70 H38         -0.6490    -3.3250     1.8710 ha         1 DZT       0.168500
     71 H39          0.3090    -4.6210     0.1750 h1         1 DZT       0.037700
     72 H40          0.5040    -2.8040    -1.2790 ho         1 DZT       0.445000
     73 H41          2.3420    -5.5590     1.0400 hc         1 DZT       0.062700
     74 H42          2.3900    -5.6710    -0.7150 hc         1 DZT       0.062700
     75 H43          3.8440    -3.6550    -0.8110 h1         1 DZT       0.050700
     76 H44          5.6210    -4.7060     0.1810 ho         1 DZT       0.442000
     77 H45          4.7030    -2.6360     1.2690 hc         1 DZT       0.052700
     78 H46          3.7430    -3.7670     2.2250 hc         1 DZT       0.052700
     79 C17         -3.0680     2.2390     1.4860 c3         1 DZT      -0.031100
@<TRIPOS>BOND
     1     1     2 1   
     2     1    33 1   
     3     1    34 1   
     4     1    35 1   
     5     2     3 1   
     6     2    36 1   
     7     2    37 1   
     8     3     4 1   
     9     3    38 1   
    10     3    39 1   
    11     4     5 1   
    12     4    40 1   
    13     4    41 1   
    14     5     6 1   
    15     5    42 1   
    16     5    43 1   
    17     6     7 1   
    18     6    44 1   
    19     6    45 1   
    20     7    21 1   
    21     7    22 2   
    22     8     9 1   
    23     8    46 1   
    24     9    10 1   
    25     9    11 1   
    26     9    12 1   
    27    10    47 1   
    28    10    48 1   
    29    10    49 1   
    30    11    50 1   
    31    11    51 1   
    32    11    52 1   
    33    12    13 1   
    34    12    53 1   
    35    12    54 1   
    36    13    14 1   
    37    13    55 1   
    38    13    56 1   
    39    14    15 1   
    40    14    57 1   
    41    14    58 1   
    42    15    59 1   
    43    15    60 1   
    44    15    79 1   
    45    16    17 ar  
    46    16    18 ar  
    47    16    79 1   
    48    17    21 ar  
    49    17    63 1   
    50    18    19 ar  
    51    18    64 1   
    52    19    20 ar  
    53    19    65 1   
    54    20    21 ar  
    55    20    66 1   
    56    22    23 1   
    57    22    67 1   
    58    23    24 2   
    59    23    68 1   
    60    24    25 1   
    61    24    32 1   
    62    25    26 2   
    63    25    27 1   
    64    26    69 1   
    65    26    70 1   
    66    27    28 1   
    67    27    29 1   
    68    27    71 1   
    69    28    72 1   
    70    29    30 1   
    71    29    73 1   
    72    29    74 1   
    73    30    31 1   
    74    30    32 1   
    75    30    75 1   
    76    31    76 1   
    77    32    77 1   
    78    32    78 1   
    79    61    79 1   
    80    62    79 1   
@<TRIPOS>SUBSTRUCTURE
     1 DZT         1 TEMP              0 ****  ****    0 ROOT
