@<TRIPOS>MOLECULE
DZU
   74    79     1     0     0
SMALL
bcc


@<TRIPOS>ATOM
      1 C3          18.1140     1.6940   -19.8080 ca         1 DZU      -0.151300
      2 C4          19.3580     2.3320   -20.0500 ca         1 DZU       0.411600
      3 C11         20.8170     3.7530   -21.4840 ce         1 DZU      -0.033200
      4 N36         14.0780     3.2510   -22.9420 n3         1 DZU      -0.719600
      5 C35         14.3250     4.6540   -23.1740 c6         1 DZU       0.167800
      6 C34         15.4520     4.8150   -24.1990 c6         1 DZU       0.165800
      7 C37         13.5260     2.6240   -24.1300 c6         1 DZU       0.167800
      8 C38         14.1160     3.2460   -25.3970 c6         1 DZU       0.165800
      9 N33         15.4650     3.7040   -25.1410 n3         1 DZU      -0.710600
     10 C32         16.1830     4.0180   -26.3580 c3         1 DZU       0.174800
     11 C31         17.6710     4.2430   -26.1210 c3         1 DZU      -0.118400
     12 C30         18.3980     4.4920   -27.4310 c3         1 DZU       0.141400
     13 C27         20.2640     5.6530   -26.5300 ca         1 DZU       0.128100
     14 C26         19.8730     6.9670   -26.7730 ca         1 DZU      -0.180000
     15 C25         20.4100     7.9940   -26.0100 ca         1 DZU      -0.100000
     16 C24         21.3160     7.7320   -24.9930 ca         1 DZU      -0.145000
     17 C28         21.1900     5.3800   -25.5310 ca         1 DZU      -0.152000
     18 C23         21.6960     6.4170   -24.7610 ca         1 DZU       0.027800
     19 N14         22.5840     6.1160   -23.7030 na         1 DZU      -0.093400
     20 C15         23.8790     6.5620   -23.5730 ca         1 DZU      -0.074200
     21 C18         24.6750     7.3890   -24.3560 ca         1 DZU      -0.125000
     22 C19         25.9640     7.6120   -23.9110 ca         1 DZU      -0.116000
     23 C20         26.4690     7.0350   -22.7270 ca         1 DZU      -0.099300
     24 C22         27.8800     7.3330   -22.3080 c3         1 DZU      -0.041800
     25 C21         25.6590     6.2060   -21.9690 ca         1 DZU      -0.070000
     26 C16         24.3510     5.9650   -22.3970 ca         1 DZU       0.078400
     27 N17         23.3730     5.1900   -21.8350 nc         1 DZU      -0.568100
     28 C13         22.3360     5.2970   -22.6270 cd         1 DZU       0.485100
     29 C12         21.0420     4.6810   -22.4250 cf         1 DZU      -0.233600
     30 C10         19.5370     3.0940   -21.2460 ca         1 DZU      -0.109100
     31 N5          20.3840     2.2430   -19.1740 nb         1 DZU      -0.662000
     32 C6          20.2210     1.5480   -18.0800 ca         1 DZU       0.420200
     33 C1          19.0260     0.8790   -17.7440 ca         1 DZU      -0.252300
     34 C9          18.4850     3.1630   -22.1380 ca         1 DZU      -0.107000
     35 C8          17.2550     2.5340   -21.8950 ca         1 DZU      -0.125000
     36 C7          17.0670     1.8130   -20.7460 ca         1 DZU      -0.107000
     37 C2          17.9760     0.9550   -18.6120 ca         1 DZU      -0.080000
     38 H1          21.6330     3.4640   -20.8350 ha         1 DZU       0.172000
     39 H2          13.7710     3.4040   -20.8860 h1         1 DZU       0.031033
     40 H3          12.2660     3.4000   -21.8260 h1         1 DZU       0.031033
     41 H4          13.1940     1.9090   -21.6180 h1         1 DZU       0.031033
     42 H6          13.4180     5.1850   -23.5080 h1         1 DZU       0.035450
     43 H7          14.6270     5.1280   -22.2370 h1         1 DZU       0.035450
     44 H8          16.4120     4.8570   -23.6780 h1         1 DZU       0.034450
     45 H9          15.3290     5.7820   -24.7140 h1         1 DZU       0.034450
     46 H10         12.4280     2.7230   -24.1740 h1         1 DZU       0.035450
     47 H11         13.7450     1.5530   -24.0940 h1         1 DZU       0.035450
     48 H12         14.1340     2.4940   -26.1880 h1         1 DZU       0.034450
     49 H13         13.4690     4.0600   -25.7630 h1         1 DZU       0.034450
     50 H15         15.7560     4.9020   -26.8640 h1         1 DZU       0.028700
     51 H16         16.0630     3.1770   -27.0480 h1         1 DZU       0.028700
     52 H17         18.0920     3.3610   -25.6300 hc         1 DZU       0.061200
     53 H18         17.8200     5.0940   -25.4500 hc         1 DZU       0.061200
     54 H19         18.2650     3.6470   -28.1080 h1         1 DZU       0.051200
     55 H20         17.9950     5.3750   -27.9370 h1         1 DZU       0.051200
     56 H21         19.1620     7.1970   -27.5560 ha         1 DZU       0.140000
     57 H22         20.1050     9.0140   -26.2030 ha         1 DZU       0.137000
     58 H23         21.7070     8.5330   -24.3800 ha         1 DZU       0.152000
     59 H24         21.4990     4.3580   -25.3490 ha         1 DZU       0.164000
     60 H25         24.3140     7.8410   -25.2710 ha         1 DZU       0.139000
     61 H26         26.6130     8.2550   -24.4940 ha         1 DZU       0.127000
     62 H27         28.0130     8.3950   -22.0930 hc         1 DZU       0.039700
     63 H28         28.1590     6.7790   -21.4130 hc         1 DZU       0.039700
     64 H29         28.5920     7.0760   -23.0930 hc         1 DZU       0.039700
     65 H30         26.0280     5.7480   -21.0590 ha         1 DZU       0.145000
     66 H31         20.2430     5.0160   -23.0750 ha         1 DZU       0.129000
     67 H32         21.0700     1.4960   -17.4060 h4         1 DZU       0.019100
     68 H33         18.9610     0.3230   -16.8200 ha         1 DZU       0.141000
     69 H34         18.6010     3.7120   -23.0650 ha         1 DZU       0.131000
     70 H35         16.4480     2.6280   -22.6130 ha         1 DZU       0.175000
     71 H36         16.1210     1.3250   -20.5470 ha         1 DZU       0.133000
     72 H37         17.0380     0.4570   -18.3990 ha         1 DZU       0.134000
     73 O29         19.8080     4.6020   -27.2530 os         1 DZU      -0.328900
     74 C39         13.2850     2.9860   -21.7690 c3         1 DZU       0.157100
@<TRIPOS>BOND
     1     1     2 ar  
     2     1    36 ar  
     3     1    37 ar  
     4     2    30 ar  
     5     2    31 ar  
     6     3    29 2   
     7     3    30 1   
     8     3    38 1   
     9     4     5 1   
    10     4     7 1   
    11     4    74 1   
    12     5     6 1   
    13     5    42 1   
    14     5    43 1   
    15     6     9 1   
    16     6    44 1   
    17     6    45 1   
    18     7     8 1   
    19     7    46 1   
    20     7    47 1   
    21     8     9 1   
    22     8    48 1   
    23     8    49 1   
    24     9    10 1   
    25    10    11 1   
    26    10    50 1   
    27    10    51 1   
    28    11    12 1   
    29    11    52 1   
    30    11    53 1   
    31    12    54 1   
    32    12    55 1   
    33    12    73 1   
    34    13    14 ar  
    35    13    17 ar  
    36    13    73 1   
    37    14    15 ar  
    38    14    56 1   
    39    15    16 ar  
    40    15    57 1   
    41    16    18 ar  
    42    16    58 1   
    43    17    18 ar  
    44    17    59 1   
    45    18    19 1   
    46    19    20 1   
    47    19    28 1   
    48    20    21 ar  
    49    20    26 ar  
    50    21    22 ar  
    51    21    60 1   
    52    22    23 ar  
    53    22    61 1   
    54    23    24 1   
    55    23    25 ar  
    56    24    62 1   
    57    24    63 1   
    58    24    64 1   
    59    25    26 ar  
    60    25    65 1   
    61    26    27 1   
    62    27    28 2   
    63    28    29 1   
    64    29    66 1   
    65    30    34 ar  
    66    31    32 ar  
    67    32    33 ar  
    68    32    67 1   
    69    33    37 ar  
    70    33    68 1   
    71    34    35 ar  
    72    34    69 1   
    73    35    36 ar  
    74    35    70 1   
    75    36    71 1   
    76    37    72 1   
    77    39    74 1   
    78    40    74 1   
    79    41    74 1   
@<TRIPOS>SUBSTRUCTURE
     1 DZU         1 TEMP              0 ****  ****    0 ROOT
