@<TRIPOS>MOLECULE
DZU
   74    79     1     0     0
SMALL
No Charge or Current Charge


@<TRIPOS>ATOM
      1 C3          17.9730     1.7510   -19.9400 ca         1 DZU      -0.086000
      2 C4          19.2100     2.4390   -20.0930 ca         1 DZU       0.281000
      3 C11         20.8630     3.6410   -21.6100 ce         1 DZU      -0.083200
      4 N36         14.1430     2.8970   -22.8080 n3         1 DZU      -0.719600
      5 C35         14.7840     4.2390   -22.6860 c6         1 DZU       0.167800
      6 C34         15.6330     4.6420   -23.9450 c6         1 DZU       0.165800
      7 C37         13.3050     2.8210   -24.0460 c6         1 DZU       0.167800
      8 C38         13.9690     3.4620   -25.3170 c6         1 DZU       0.165800
      9 N33         15.4210     3.7670   -25.1480 n3         1 DZU      -0.710600
     10 C32         16.0500     4.2770   -26.3890 c3         1 DZU       0.174800
     11 C31         17.5850     4.4050   -26.3150 c3         1 DZU      -0.118400
     12 C30         18.2170     4.8110   -27.6650 c3         1 DZU       0.164600
     13 C27         20.2800     5.7200   -26.6750 ca         1 DZU       0.128100
     14 C26         19.8520     7.0580   -26.5610 ca         1 DZU      -0.162000
     15 C25         20.4930     7.9250   -25.6590 ca         1 DZU      -0.082000
     16 C24         21.5460     7.4520   -24.8570 ca         1 DZU      -0.127000
     17 C28         21.3530     5.2620   -25.8990 ca         1 DZU      -0.134000
     18 C23         21.9740     6.1150   -24.9690 ca         1 DZU       0.027800
     19 N14         22.9570     5.6030   -24.1250 na         1 DZU      -0.093400
     20 C15         24.1340     6.2230   -23.8150 ca         1 DZU      -0.074200
     21 C18         25.0200     6.9120   -24.6520 ca         1 DZU      -0.107000
     22 C19         26.2030     7.4210   -24.0790 ca         1 DZU      -0.098000
     23 C20         26.4750     7.2240   -22.7020 ca         1 DZU      -0.099300
     24 C22         27.7540     7.7760   -22.0910 c3         1 DZU      -0.041800
     25 C21         25.5500     6.5180   -21.8960 ca         1 DZU      -0.052000
     26 C16         24.3750     6.0270   -22.4850 ca         1 DZU       0.078400
     27 N17         23.3450     5.3320   -21.8700 nc         1 DZU      -0.568100
     28 C13         22.4560     5.1790   -22.8750 cd         1 DZU       0.485100
     29 C12         21.1870     4.4840   -22.6340 cf         1 DZU      -0.283600
     30 C10         19.5730     2.9080   -21.3870 ca         1 DZU      -0.043800
     31 N5          20.0250     2.6520   -19.0250 nb         1 DZU      -0.662000
     32 C6          19.6490     2.2000   -17.8070 ca         1 DZU       0.354900
     33 C1          18.4460     1.5150   -17.5870 ca         1 DZU      -0.169000
     34 C9          18.7110     2.6740   -22.4820 ca         1 DZU      -0.089000
     35 C8          17.4980     1.9930   -22.3100 ca         1 DZU      -0.107000
     36 C7          17.1270     1.5330   -21.0410 ca         1 DZU      -0.089000
     37 C2          17.5880     1.2840   -18.6700 ca         1 DZU      -0.062000
     38 H1          21.6200     3.4710   -20.8400 ha         1 DZU       0.222000
     39 H2          14.0920     2.4850   -20.7200 h1         1 DZU       0.031033
     40 H3          12.5780     3.1460   -21.3820 h1         1 DZU       0.031033
     41 H4          13.0320     1.4550   -21.7050 h1         1 DZU       0.031033
     42 H6          14.0080     5.0040   -22.5360 h1         1 DZU       0.035450
     43 H7          15.4350     4.2740   -21.8000 h1         1 DZU       0.035450
     44 H8          16.6930     4.6160   -23.6560 h1         1 DZU       0.034450
     45 H9          15.4020     5.6890   -24.1900 h1         1 DZU       0.034450
     46 H10         12.3370     3.3170   -23.8820 h1         1 DZU       0.035450
     47 H11         13.0810     1.7670   -24.2650 h1         1 DZU       0.035450
     48 H12         13.8150     2.7840   -26.1700 h1         1 DZU       0.034450
     49 H13         13.4270     4.3900   -25.5540 h1         1 DZU       0.034450
     50 H15         15.6260     5.2580   -26.6470 h1         1 DZU       0.028700
     51 H16         15.8110     3.5960   -27.2170 h1         1 DZU       0.028700
     52 H17         18.0070     3.4450   -25.9970 hc         1 DZU       0.061200
     53 H18         17.8510     5.1490   -25.5560 hc         1 DZU       0.061200
     54 H19         17.9330     4.0750   -28.4290 h1         1 DZU       0.051200
     55 H20         17.8370     5.7880   -27.9890 h1         1 DZU       0.051200
     56 H21         19.0320     7.4350   -27.1660 ha         1 DZU       0.122000
     57 H22         20.1640     8.9590   -25.5700 ha         1 DZU       0.119000
     58 H23         22.0190     8.1200   -24.1400 ha         1 DZU       0.134000
     59 H24         21.6690     4.2250   -25.9840 ha         1 DZU       0.146000
     60 H25         24.8060     7.0450   -25.7100 ha         1 DZU       0.121000
     61 H26         26.9100     7.9630   -24.7020 ha         1 DZU       0.109000
     62 H27         27.6070     8.8060   -21.7440 hc         1 DZU       0.039700
     63 H28         28.0790     7.1770   -21.2330 hc         1 DZU       0.039700
     64 H29         28.5740     7.7810   -22.8190 hc         1 DZU       0.039700
     65 H30         25.7370     6.3620   -20.8370 ha         1 DZU       0.127000
     66 H31         20.4380     4.6570   -23.4020 ha         1 DZU       0.179000
     67 H32         20.3350     2.3940   -16.9840 h4         1 DZU       0.019100
     68 H33         18.1890     1.1720   -16.5890 ha         1 DZU       0.123000
     69 H34         18.9780     3.0080   -23.4800 ha         1 DZU       0.113000
     70 H35         16.8410     1.8260   -23.1620 ha         1 DZU       0.157000
     71 H36         16.1830     1.0080   -20.9170 ha         1 DZU       0.115000
     72 H37         16.6480     0.7560   -18.5270 ha         1 DZU       0.116000
     73 O29         19.6510     4.8210   -27.5080 os         1 DZU      -0.352100
     74 C39         13.4220     2.4750   -21.5900 c3         1 DZU       0.157100
@<TRIPOS>BOND
     1     1     2 ar  
     2     1    36 ar  
     3     1    37 ar  
     4     2    30 ar  
     5     2    31 ar  
     6     3    29 2   
     7     3    30 1   
     8     3    38 1   
     9     4     5 1   
    10     4     7 1   
    11     4    74 1   
    12     5     6 1   
    13     5    42 1   
    14     5    43 1   
    15     6     9 1   
    16     6    44 1   
    17     6    45 1   
    18     7     8 1   
    19     7    46 1   
    20     7    47 1   
    21     8     9 1   
    22     8    48 1   
    23     8    49 1   
    24     9    10 1   
    25    10    11 1   
    26    10    50 1   
    27    10    51 1   
    28    11    12 1   
    29    11    52 1   
    30    11    53 1   
    31    12    54 1   
    32    12    55 1   
    33    12    73 1   
    34    13    14 ar  
    35    13    17 ar  
    36    13    73 1   
    37    14    15 ar  
    38    14    56 1   
    39    15    16 ar  
    40    15    57 1   
    41    16    18 ar  
    42    16    58 1   
    43    17    18 ar  
    44    17    59 1   
    45    18    19 1   
    46    19    20 1   
    47    19    28 1   
    48    20    21 ar  
    49    20    26 ar  
    50    21    22 ar  
    51    21    60 1   
    52    22    23 ar  
    53    22    61 1   
    54    23    24 1   
    55    23    25 ar  
    56    24    62 1   
    57    24    63 1   
    58    24    64 1   
    59    25    26 ar  
    60    25    65 1   
    61    26    27 1   
    62    27    28 2   
    63    28    29 1   
    64    29    66 1   
    65    30    34 ar  
    66    31    32 ar  
    67    32    33 ar  
    68    32    67 1   
    69    33    37 ar  
    70    33    68 1   
    71    34    35 ar  
    72    34    69 1   
    73    35    36 ar  
    74    35    70 1   
    75    36    71 1   
    76    37    72 1   
    77    39    74 1   
    78    40    74 1   
    79    41    74 1   
@<TRIPOS>SUBSTRUCTURE
     1 DZU         1 TEMP              0 ****  ****    0 ROOT
