@<TRIPOS>MOLECULE
DZV
   48    52     1     0     0
SMALL
bcc


@<TRIPOS>ATOM
      1 C2          -3.0690    -0.3580     0.8290 c3         1 DZV       0.155300
      2 C3          -3.6520     0.5400    -0.2330 ca         1 DZV      -0.079300
      3 C4          -4.9260     1.0750    -0.0640 ca         1 DZV       0.033400
      4 C5          -5.5090     1.9060    -1.0070 ca         1 DZV      -0.118000
      5 C6          -4.8070     2.2220    -2.1600 ca         1 DZV      -0.120000
      6 C7          -3.5360     1.7040    -2.3540 ca         1 DZV      -0.122000
      7 C8          -2.9700     0.8730    -1.3980 ca         1 DZV      -0.103000
      8 C11          0.9010    -1.7060     0.0320 ca         1 DZV       0.074800
      9 C12          2.1930    -2.1980    -0.1060 ca         1 DZV      -0.152000
     10 C13          2.3870    -3.4290    -0.7070 ca         1 DZV      -0.078000
     11 C14          1.3120    -4.1800    -1.1690 ca         1 DZV      -0.154000
     12 C17          2.8310     0.6960     1.0410 ca         1 DZV      -0.153500
     13 C18          3.4430     0.8710    -0.1940 ca         1 DZV       0.143100
     14 C19          4.8350     1.0420    -0.2620 ca         1 DZV       0.042100
     15 C20          6.7150     1.3610    -1.6770 c3         1 DZV       0.133700
     16 C21          5.5820     1.0520     0.9040 ca         1 DZV      -0.155000
     17 C22          4.9580     0.8940     2.1400 ca         1 DZV      -0.137000
     18 C23          3.5910     0.7190     2.2110 ca         1 DZV      -0.083000
     19 N1           0.6080    -0.4720     0.6180 na         1 DZV      -0.273800
     20 C1          -0.6670    -0.0870     0.8810 cc         1 DZV       0.522400
     21 N2          -1.7400    -0.8480     0.5100 n          1 DZV      -0.441300
     22 CL1         -5.8250     0.6990     1.3740 cl         1 DZV      -0.119400
     23 C9          -1.5840    -2.0220    -0.1920 c          1 DZV       0.730100
     24 C10         -0.1930    -2.4650    -0.3970 ca         1 DZV      -0.191600
     25 C15          0.0290    -3.7000    -1.0050 ca         1 DZV      -0.046000
     26 O1          -2.5460    -2.6490    -0.5850 o          1 DZV      -0.589500
     27 N3          -0.7020     1.0600     1.4860 nd         1 DZV      -0.387000
     28 N4           0.5890     1.4620     1.6240 nd         1 DZV      -0.320000
     29 C16          1.3730     0.5690     1.1070 cc         1 DZV       0.468000
     30 O2           5.3200     1.1930    -1.5110 os         1 DZV      -0.342900
     31 O3           2.6750     0.8570    -1.2960 oh         1 DZV      -0.485100
     32 H1          -3.0080     0.1740     1.7790 h1         1 DZV       0.091700
     33 H2          -3.7140    -1.2200     0.9950 h1         1 DZV       0.091700
     34 H3          -6.5010     2.3030    -0.8400 ha         1 DZV       0.146000
     35 H4          -5.2570     2.8700    -2.9000 ha         1 DZV       0.135000
     36 H5          -2.9790     1.9450    -3.2490 ha         1 DZV       0.135000
     37 H6          -1.9760     0.4830    -1.5770 ha         1 DZV       0.135000
     38 H7           3.0460    -1.6500     0.2610 ha         1 DZV       0.156000
     39 H8           3.3960    -3.8050    -0.8120 ha         1 DZV       0.139000
     40 H9           1.4790    -5.1380    -1.6410 ha         1 DZV       0.144000
     41 H10          6.8880     1.4640    -2.7450 h1         1 DZV       0.044367
     42 H11          7.0750     2.2600    -1.1710 h1         1 DZV       0.044367
     43 H12          7.2720     0.4970    -1.3080 h1         1 DZV       0.044367
     44 H13          6.6550     1.1840     0.8690 ha         1 DZV       0.139000
     45 H14          5.5540     0.9070     3.0410 ha         1 DZV       0.141000
     46 H15          3.0990     0.5870     3.1660 ha         1 DZV       0.152000
     47 H16         -0.8190    -4.2810    -1.3400 ha         1 DZV       0.162000
     48 H17          3.2200     0.9410    -2.0890 ho         1 DZV       0.447000
@<TRIPOS>BOND
     1     1     2 1   
     2     1    21 1   
     3     1    32 1   
     4     1    33 1   
     5     2     3 ar  
     6     2     7 ar  
     7     3     4 ar  
     8     3    22 1   
     9     4     5 ar  
    10     4    34 1   
    11     5     6 ar  
    12     5    35 1   
    13     6     7 ar  
    14     6    36 1   
    15     7    37 1   
    16     8     9 ar  
    17     8    19 1   
    18     8    24 ar  
    19     9    10 ar  
    20     9    38 1   
    21    10    11 ar  
    22    10    39 1   
    23    11    25 ar  
    24    11    40 1   
    25    12    13 ar  
    26    12    18 ar  
    27    12    29 1   
    28    13    14 ar  
    29    13    31 1   
    30    14    16 ar  
    31    14    30 1   
    32    15    30 1   
    33    15    41 1   
    34    15    42 1   
    35    15    43 1   
    36    16    17 ar  
    37    16    44 1   
    38    17    18 ar  
    39    17    45 1   
    40    18    46 1   
    41    19    20 1   
    42    19    29 1   
    43    20    21 1   
    44    20    27 2   
    45    21    23 1   
    46    23    24 1   
    47    23    26 2   
    48    24    25 ar  
    49    25    47 1   
    50    27    28 1   
    51    28    29 2   
    52    31    48 1   
@<TRIPOS>SUBSTRUCTURE
     1 DZV         1 TEMP              0 ****  ****    0 ROOT
