@<TRIPOS>MOLECULE
DZV
   48    52     1     0     0
SMALL
No Charge or Current Charge


@<TRIPOS>ATOM
      1 C2          -3.1730    -0.3890     0.7920 c3         1 DZV       0.155300
      2 C3          -3.7330     0.5740    -0.2630 ca         1 DZV      -0.079300
      3 C4          -5.0780     0.9990    -0.1750 ca         1 DZV       0.125000
      4 C5          -5.6120     1.8820    -1.1280 ca         1 DZV      -0.100000
      5 C6          -4.8130     2.3540    -2.1820 ca         1 DZV      -0.102000
      6 C7          -3.4750     1.9410    -2.2790 ca         1 DZV      -0.104000
      7 C8          -2.9360     1.0580    -1.3270 ca         1 DZV      -0.085000
      8 C11          0.9110    -1.7290     0.1560 ca         1 DZV       0.074800
      9 C12          2.2200    -2.2600     0.1070 ca         1 DZV      -0.134000
     10 C13          2.4780    -3.4630    -0.5700 ca         1 DZV      -0.060000
     11 C14          1.4290    -4.1600    -1.1860 ca         1 DZV      -0.136000
     12 C17          2.8290     0.6620     1.1190 ca         1 DZV      -0.153500
     13 C18          3.3980     0.7690    -0.1690 ca         1 DZV       0.143100
     14 C19          4.7840     0.9770    -0.3270 ca         1 DZV       0.042100
     15 C20          6.6860     1.2740    -1.8840 c3         1 DZV       0.156900
     16 C21          5.6070     1.1000     0.8140 ca         1 DZV      -0.137000
     17 C22          5.0380     1.0280     2.0960 ca         1 DZV      -0.119000
     18 C23          3.6570     0.8210     2.2490 ca         1 DZV      -0.065000
     19 N1           0.5830    -0.5290     0.7970 na         1 DZV      -0.273800
     20 C1          -0.7010    -0.1770     1.0580 cc         1 DZV       0.522400
     21 N2          -1.7880    -0.8670     0.5580 n          1 DZV      -0.374300
     22 Cl1         -6.1230     0.4410     1.1330 cl         1 DZV      -0.211000
     23 C9          -1.5780    -1.9960    -0.2500 c          1 DZV       0.587600
     24 C10         -0.1520    -2.4670    -0.4130 ca         1 DZV      -0.191600
     25 C15          0.1170    -3.6720    -1.0990 ca         1 DZV      -0.028000
     26 O1          -2.5090    -2.5870    -0.7830 o          1 DZV      -0.514000
     27 N3          -0.7070     0.9230     1.7920 nd         1 DZV      -0.387000
     28 N4           0.6090     1.3190     1.9590 nd         1 DZV      -0.320000
     29 C16          1.3910     0.4690     1.3010 cc         1 DZV       0.468000
     30 O2           5.2860     1.0630    -1.6160 os         1 DZV      -0.366100
     31 O3           2.6170     0.6960    -1.2870 oh         1 DZV      -0.524100
     32 H1          -3.2170     0.1070     1.7710 h1         1 DZV       0.091700
     33 H2          -3.8390    -1.2580     0.8660 h1         1 DZV       0.091700
     34 H3          -6.6490     2.2020    -1.0490 ha         1 DZV       0.128000
     35 H4          -5.2280     3.0370    -2.9190 ha         1 DZV       0.117000
     36 H5          -2.8530     2.3070    -3.0930 ha         1 DZV       0.117000
     37 H6          -1.8960     0.7600    -1.4300 ha         1 DZV       0.117000
     38 H7           3.0520    -1.7700     0.5970 ha         1 DZV       0.138000
     39 H8           3.4910    -3.8570    -0.6120 ha         1 DZV       0.121000
     40 H9           1.6290    -5.0930    -1.7090 ha         1 DZV       0.126000
     41 H10          6.8650     1.3080    -2.9660 h1         1 DZV       0.044367
     42 H11          7.0270     2.2240    -1.4530 h1         1 DZV       0.044367
     43 H12          7.2900     0.4590    -1.4650 h1         1 DZV       0.044367
     44 H13          6.6780     1.2620     0.7270 ha         1 DZV       0.121000
     45 H14          5.6680     1.1360     2.9760 ha         1 DZV       0.123000
     46 H15          3.2300     0.7700     3.2490 ha         1 DZV       0.134000
     47 H16         -0.6920    -4.2440    -1.5510 ha         1 DZV       0.144000
     48 H17          3.2250     0.7990    -2.0520 ho         1 DZV       0.486000
@<TRIPOS>BOND
     1     1     2 1   
     2     1    21 1   
     3     1    32 1   
     4     1    33 1   
     5     2     3 ar  
     6     2     7 ar  
     7     3     4 ar  
     8     3    22 1   
     9     4     5 ar  
    10     4    34 1   
    11     5     6 ar  
    12     5    35 1   
    13     6     7 ar  
    14     6    36 1   
    15     7    37 1   
    16     8     9 ar  
    17     8    19 1   
    18     8    24 ar  
    19     9    10 ar  
    20     9    38 1   
    21    10    11 ar  
    22    10    39 1   
    23    11    25 ar  
    24    11    40 1   
    25    12    13 ar  
    26    12    18 ar  
    27    12    29 1   
    28    13    14 ar  
    29    13    31 1   
    30    14    16 ar  
    31    14    30 1   
    32    15    30 1   
    33    15    41 1   
    34    15    42 1   
    35    15    43 1   
    36    16    17 ar  
    37    16    44 1   
    38    17    18 ar  
    39    17    45 1   
    40    18    46 1   
    41    19    20 1   
    42    19    29 1   
    43    20    21 1   
    44    20    27 2   
    45    21    23 1   
    46    23    24 1   
    47    23    26 2   
    48    24    25 ar  
    49    25    47 1   
    50    27    28 1   
    51    28    29 2   
    52    31    48 1   
@<TRIPOS>SUBSTRUCTURE
     1 DZV         1 TEMP              0 ****  ****    0 ROOT
