@<TRIPOS>MOLECULE
DZW
   82    83     1     0     0
SMALL
bcc


@<TRIPOS>ATOM
      1 C1          10.0140    -3.0560     1.2480 c3         1 DZW      -0.088100
      2 C2           8.6190    -2.5670     1.6120 c3         1 DZW      -0.074400
      3 C3           7.6440    -2.6370     0.4430 c3         1 DZW      -0.075400
      4 C4           6.2440    -2.1450     0.7890 c3         1 DZW      -0.074400
      5 C5           5.2850    -2.1970    -0.3940 c3         1 DZW      -0.076400
      6 C6           3.8870    -1.6940    -0.0620 c3         1 DZW      -0.074400
      7 C7           2.9610    -1.7160    -1.2820 c3         1 DZW      -0.040200
      8 C8           1.5690    -1.2070    -1.0000 ce         1 DZW      -0.045400
      9 O9          -7.8660     1.5480     1.4520 oh         1 DZW      -0.597800
     10 C10         -8.5080     0.3530     1.0200 c3         1 DZW       0.160800
     11 C11         -8.7140    -0.4900     2.2730 c3         1 DZW      -0.100100
     12 C12         -9.8620     0.6900     0.3960 c3         1 DZW      -0.100100
     13 C13         -7.6460    -0.3820    -0.0160 c3         1 DZW      -0.102400
     14 C14         -6.2330    -0.7440     0.4270 c3         1 DZW      -0.070400
     15 C15         -5.4410    -1.4230    -0.6850 c3         1 DZW      -0.078400
     16 C16         -4.0260    -1.8010    -0.2670 c3         1 DZW      -0.073400
     17 C18         -1.8480    -2.8500    -0.9740 ca         1 DZW      -0.078300
     18 C19         -0.8200    -1.9350    -1.1670 ca         1 DZW      -0.119000
     19 C20         -1.5500    -4.0730    -0.3760 ca         1 DZW      -0.122000
     20 C21         -0.2470    -4.3650     0.0010 ca         1 DZW      -0.129000
     21 C22          0.7700    -3.4460    -0.2070 ca         1 DZW      -0.120000
     22 C23          0.4980    -2.2010    -0.7820 ca         1 DZW      -0.047800
     23 C24          1.2850     0.1100    -0.9260 cf         1 DZW      -0.124000
     24 C25          2.2270     1.1850    -1.1440 cf         1 DZW      -0.123000
     25 C26          1.9460     2.5010    -1.1060 ce         1 DZW      -0.056200
     26 C27          0.6060     3.0700    -0.8700 ce         1 DZW      -0.127200
     27 C28         -0.4700     2.7790    -1.5980 c2         1 DZW      -0.195000
     28 C29          0.5510     4.0770     0.2570 c6         1 DZW       0.189300
     29 O30          0.7840     3.4370     1.4980 oh         1 DZW      -0.593800
     30 C31          1.6270     5.1380     0.0780 c6         1 DZW      -0.066400
     31 C32          3.0120     4.5320    -0.0960 c6         1 DZW       0.154100
     32 O33          3.9160     5.5950    -0.3110 oh         1 DZW      -0.598800
     33 C34          3.0170     3.5430    -1.2660 c6         1 DZW      -0.076200
     34 H1          10.4380    -2.4620     0.4350 hc         1 DZW       0.031700
     35 H2          10.6970    -2.9900     2.0960 hc         1 DZW       0.031700
     36 H3           9.9950    -4.0960     0.9180 hc         1 DZW       0.031700
     37 H4           8.2290    -3.1580     2.4470 hc         1 DZW       0.036700
     38 H5           8.6750    -1.5360     1.9740 hc         1 DZW       0.036700
     39 H6           8.0380    -2.0470    -0.3920 hc         1 DZW       0.036700
     40 H7           7.5860    -3.6700     0.0810 hc         1 DZW       0.036700
     41 H8           5.8410    -2.7430     1.6140 hc         1 DZW       0.038200
     42 H9           6.3030    -1.1170     1.1630 hc         1 DZW       0.038200
     43 H10          5.6940    -1.6010    -1.2180 hc         1 DZW       0.036700
     44 H11          5.2230    -3.2250    -0.7670 hc         1 DZW       0.036700
     45 H12          3.4600    -2.3000     0.7430 hc         1 DZW       0.043700
     46 H13          3.9480    -0.6740     0.3300 hc         1 DZW       0.043700
     47 H14          3.4150    -1.1200    -2.0780 hc         1 DZW       0.047200
     48 H15          2.9110    -2.7340    -1.6750 hc         1 DZW       0.047200
     49 H16         -7.7020     2.0960     0.6770 ho         1 DZW       0.398000
     50 H17         -9.3590     0.0260     2.9870 hc         1 DZW       0.041200
     51 H18         -9.1900    -1.4380     2.0190 hc         1 DZW       0.041200
     52 H19         -7.7710    -0.7140     2.7720 hc         1 DZW       0.041200
     53 H20        -10.5030     1.2120     1.1090 hc         1 DZW       0.041200
     54 H21         -9.7400     1.3270    -0.4830 hc         1 DZW       0.041200
     55 H22        -10.3840    -0.2130     0.0730 hc         1 DZW       0.041200
     56 H23         -8.1740    -1.2920    -0.3200 hc         1 DZW       0.039200
     57 H24         -7.5870     0.2400    -0.9190 hc         1 DZW       0.039200
     58 H25         -5.7030     0.1560     0.7520 hc         1 DZW       0.046200
     59 H26         -6.2680    -1.4120     1.2920 hc         1 DZW       0.046200
     60 H27         -5.9740    -2.3220    -1.0130 hc         1 DZW       0.035700
     61 H28         -5.3950    -0.7620    -1.5570 hc         1 DZW       0.035700
     62 H29         -3.4800    -0.9030     0.0400 hc         1 DZW       0.043200
     63 H30         -4.0630    -2.4530     0.6120 hc         1 DZW       0.043200
     64 H31         -3.7900    -3.4160    -1.6700 hc         1 DZW       0.045200
     65 H32         -3.2330    -1.8640    -2.2670 hc         1 DZW       0.045200
     66 H33         -1.0500    -1.0000    -1.6650 ha         1 DZW       0.129000
     67 H34         -2.3350    -4.8030    -0.2200 ha         1 DZW       0.130000
     68 H35         -0.0170    -5.3200     0.4570 ha         1 DZW       0.130000
     69 H36          1.7780    -3.7020     0.0910 ha         1 DZW       0.133000
     70 H37          0.2790     0.4040    -0.6540 ha         1 DZW       0.126000
     71 H38          3.2600     0.9150    -1.3340 ha         1 DZW       0.124000
     72 H39         -0.4320     2.0830    -2.4260 ha         1 DZW       0.118500
     73 H40         -1.4270     3.2450    -1.3940 ha         1 DZW       0.118500
     74 H41         -0.4320     4.5650     0.2490 h1         1 DZW       0.037700
     75 H42          0.1290     2.7400     1.6060 ho         1 DZW       0.406000
     76 H43          1.3810     5.7310    -0.8080 hc         1 DZW       0.062700
     77 H44          1.6130     5.8200     0.9330 hc         1 DZW       0.062700
     78 H45          3.2810     3.9830     0.8170 h1         1 DZW       0.049700
     79 H46          4.8070     5.2330    -0.3290 ho         1 DZW       0.403000
     80 H47          3.9990     3.0710    -1.3580 hc         1 DZW       0.052700
     81 H48          2.8400     4.1110    -2.1880 hc         1 DZW       0.052700
     82 C17         -3.2540    -2.5070    -1.3820 c3         1 DZW      -0.031100
@<TRIPOS>BOND
     1     1     2 1   
     2     1    34 1   
     3     1    35 1   
     4     1    36 1   
     5     2     3 1   
     6     2    37 1   
     7     2    38 1   
     8     3     4 1   
     9     3    39 1   
    10     3    40 1   
    11     4     5 1   
    12     4    41 1   
    13     4    42 1   
    14     5     6 1   
    15     5    43 1   
    16     5    44 1   
    17     6     7 1   
    18     6    45 1   
    19     6    46 1   
    20     7     8 1   
    21     7    47 1   
    22     7    48 1   
    23     8    22 1   
    24     8    23 2   
    25     9    10 1   
    26     9    49 1   
    27    10    11 1   
    28    10    12 1   
    29    10    13 1   
    30    11    50 1   
    31    11    51 1   
    32    11    52 1   
    33    12    53 1   
    34    12    54 1   
    35    12    55 1   
    36    13    14 1   
    37    13    56 1   
    38    13    57 1   
    39    14    15 1   
    40    14    58 1   
    41    14    59 1   
    42    15    16 1   
    43    15    60 1   
    44    15    61 1   
    45    16    62 1   
    46    16    63 1   
    47    16    82 1   
    48    17    18 ar  
    49    17    19 ar  
    50    17    82 1   
    51    18    22 ar  
    52    18    66 1   
    53    19    20 ar  
    54    19    67 1   
    55    20    21 ar  
    56    20    68 1   
    57    21    22 ar  
    58    21    69 1   
    59    23    24 1   
    60    23    70 1   
    61    24    25 2   
    62    24    71 1   
    63    25    26 1   
    64    25    33 1   
    65    26    27 2   
    66    26    28 1   
    67    27    72 1   
    68    27    73 1   
    69    28    29 1   
    70    28    30 1   
    71    28    74 1   
    72    29    75 1   
    73    30    31 1   
    74    30    76 1   
    75    30    77 1   
    76    31    32 1   
    77    31    33 1   
    78    31    78 1   
    79    32    79 1   
    80    33    80 1   
    81    33    81 1   
    82    64    82 1   
    83    65    82 1   
@<TRIPOS>SUBSTRUCTURE
     1 DZW         1 TEMP              0 ****  ****    0 ROOT
