@<TRIPOS>MOLECULE
DZW
   82    83     1     0     0
SMALL
No Charge or Current Charge


@<TRIPOS>ATOM
      1 C1          10.2830    -3.0860     0.6060 c3         1 DZW      -0.088100
      2 C2           8.9150    -2.5840     1.1050 c3         1 DZW      -0.074400
      3 C3           7.8150    -2.6470     0.0230 c3         1 DZW      -0.075400
      4 C4           6.4440    -2.1450     0.5240 c3         1 DZW      -0.074400
      5 C5           5.3450    -2.2070    -0.5590 c3         1 DZW      -0.076400
      6 C6           3.9730    -1.7050    -0.0580 c3         1 DZW      -0.074400
      7 C7           2.8720    -1.7660    -1.1440 c3         1 DZW      -0.040200
      8 C8           1.5110    -1.2600    -0.6670 ce         1 DZW      -0.045400
      9 O9          -7.9360     1.8530     0.4450 oh         1 DZW      -0.660000
     10 C10         -8.5760     0.5780     0.5080 c3         1 DZW       0.184000
     11 C11         -8.7120     0.1880     1.9990 c3         1 DZW      -0.100100
     12 C12         -9.9770     0.7300    -0.1290 c3         1 DZW      -0.100100
     13 C13         -7.7290    -0.4510    -0.3000 c3         1 DZW      -0.102400
     14 C14         -6.2730    -0.6760     0.1900 c3         1 DZW      -0.070400
     15 C15         -5.4880    -1.6630    -0.7030 c3         1 DZW      -0.078400
     16 C16         -4.0410    -1.8980    -0.2160 c3         1 DZW      -0.073400
     17 C18         -1.8320    -3.1000    -0.6050 ca         1 DZW      -0.078300
     18 C19         -0.8400    -2.1320    -0.8530 ca         1 DZW      -0.101000
     19 C20         -1.4990    -4.2630     0.1130 ca         1 DZW      -0.104000
     20 C21         -0.1860    -4.4550     0.5730 ca         1 DZW      -0.111000
     21 C22          0.7990    -3.4850     0.3220 ca         1 DZW      -0.102000
     22 C23          0.4810    -2.3110    -0.3930 ca         1 DZW      -0.047800
     23 C24          1.2380     0.0750    -0.5460 cf         1 DZW      -0.174000
     24 C25          2.1390     1.1960    -0.8240 cf         1 DZW      -0.173000
     25 C26          1.8220     2.5220    -0.7390 ce         1 DZW      -0.056200
     26 C27          0.4900     3.0700    -0.4180 ce         1 DZW      -0.127200
     27 C28         -0.6390     2.6970    -1.0600 c2         1 DZW      -0.295000
     28 C29          0.4780     4.1530     0.6710 c6         1 DZW       0.212500
     29 O30          0.7220     3.5420     1.9390 oh         1 DZW      -0.656000
     30 C31          1.5340     5.2470     0.3760 c6         1 DZW      -0.066400
     31 C32          2.9340     4.6440     0.1040 c6         1 DZW       0.177300
     32 O33          3.8570     5.6870    -0.2330 oh         1 DZW      -0.661000
     33 C34          2.8670     3.6030    -1.0420 c6         1 DZW      -0.076200
     34 H1          10.6340    -2.4790    -0.2380 hc         1 DZW       0.031700
     35 H2          11.0290    -3.0220     1.4070 hc         1 DZW       0.031700
     36 H3          10.2190    -4.1300     0.2790 hc         1 DZW       0.031700
     37 H4           8.6090    -3.1870     1.9700 hc         1 DZW       0.036700
     38 H5           9.0210    -1.5500     1.4570 hc         1 DZW       0.036700
     39 H6           8.1260    -2.0450    -0.8410 hc         1 DZW       0.036700
     40 H7           7.7140    -3.6820    -0.3280 hc         1 DZW       0.036700
     41 H8           6.1330    -2.7460     1.3870 hc         1 DZW       0.038200
     42 H9           6.5450    -1.1100     0.8740 hc         1 DZW       0.038200
     43 H10          5.6550    -1.6060    -1.4220 hc         1 DZW       0.036700
     44 H11          5.2430    -3.2420    -0.9090 hc         1 DZW       0.036700
     45 H12          3.6670    -2.3030     0.8080 hc         1 DZW       0.043700
     46 H13          4.0800    -0.6740     0.3000 hc         1 DZW       0.043700
     47 H14          3.1990    -1.1910    -2.0180 hc         1 DZW       0.047200
     48 H15          2.7880    -2.8000    -1.5010 hc         1 DZW       0.047200
     49 H16         -7.7910     2.0500    -0.5050 ho         1 DZW       0.437000
     50 H17         -9.3720     0.8880     2.5270 hc         1 DZW       0.041200
     51 H18         -9.1370    -0.8190     2.1000 hc         1 DZW       0.041200
     52 H19         -7.7420     0.2030     2.5080 hc         1 DZW       0.041200
     53 H20        -10.5710     1.4840     0.4010 hc         1 DZW       0.041200
     54 H21         -9.9030     1.0350    -1.1800 hc         1 DZW       0.041200
     55 H22        -10.5250    -0.2200    -0.0910 hc         1 DZW       0.041200
     56 H23         -8.2500    -1.4160    -0.2920 hc         1 DZW       0.039200
     57 H24         -7.6950    -0.1340    -1.3510 hc         1 DZW       0.039200
     58 H25         -5.7400     0.2810     0.2160 hc         1 DZW       0.046200
     59 H26         -6.2850    -1.0670     1.2140 hc         1 DZW       0.046200
     60 H27         -6.0190    -2.6230    -0.7320 hc         1 DZW       0.035700
     61 H28         -5.4640    -1.2780    -1.7300 hc         1 DZW       0.035700
     62 H29         -3.5110    -0.9380    -0.1840 hc         1 DZW       0.043200
     63 H30         -4.0630    -2.2850     0.8100 hc         1 DZW       0.043200
     64 H31         -3.7920    -3.8380    -1.1510 hc         1 DZW       0.045200
     65 H32         -3.2300    -2.4980    -2.1340 hc         1 DZW       0.045200
     66 H33         -1.0990    -1.2370    -1.4150 ha         1 DZW       0.111000
     67 H34         -2.2550    -5.0180     0.3150 ha         1 DZW       0.112000
     68 H35          0.0680    -5.3550     1.1290 ha         1 DZW       0.112000
     69 H36          1.8060    -3.6490     0.6940 ha         1 DZW       0.115000
     70 H37          0.2420     0.3390    -0.1930 ha         1 DZW       0.176000
     71 H38          3.1600     0.9490    -1.1110 ha         1 DZW       0.174000
     72 H39         -0.6240     1.9520    -1.8560 ha         1 DZW       0.168500
     73 H40         -1.6110     3.1310    -0.8200 ha         1 DZW       0.168500
     74 H41         -0.5110     4.6340     0.6850 h1         1 DZW       0.037700
     75 H42          0.2350     2.6910     1.9180 ho         1 DZW       0.445000
     76 H43          1.2100     5.8260    -0.4990 hc         1 DZW       0.062700
     77 H44          1.5830     5.9540     1.2150 hc         1 DZW       0.062700
     78 H45          3.2710     4.1290     1.0170 h1         1 DZW       0.049700
     79 H46          4.7390     5.2650    -0.3200 ho         1 DZW       0.442000
     80 H47          3.8580     3.1540    -1.1920 hc         1 DZW       0.052700
     81 H48          2.6050     4.1020    -1.9860 hc         1 DZW       0.052700
     82 C17         -3.2540    -2.8830    -1.1070 c3         1 DZW      -0.031100
@<TRIPOS>BOND
     1     1     2 1   
     2     1    34 1   
     3     1    35 1   
     4     1    36 1   
     5     2     3 1   
     6     2    37 1   
     7     2    38 1   
     8     3     4 1   
     9     3    39 1   
    10     3    40 1   
    11     4     5 1   
    12     4    41 1   
    13     4    42 1   
    14     5     6 1   
    15     5    43 1   
    16     5    44 1   
    17     6     7 1   
    18     6    45 1   
    19     6    46 1   
    20     7     8 1   
    21     7    47 1   
    22     7    48 1   
    23     8    22 1   
    24     8    23 2   
    25     9    10 1   
    26     9    49 1   
    27    10    11 1   
    28    10    12 1   
    29    10    13 1   
    30    11    50 1   
    31    11    51 1   
    32    11    52 1   
    33    12    53 1   
    34    12    54 1   
    35    12    55 1   
    36    13    14 1   
    37    13    56 1   
    38    13    57 1   
    39    14    15 1   
    40    14    58 1   
    41    14    59 1   
    42    15    16 1   
    43    15    60 1   
    44    15    61 1   
    45    16    62 1   
    46    16    63 1   
    47    16    82 1   
    48    17    18 ar  
    49    17    19 ar  
    50    17    82 1   
    51    18    22 ar  
    52    18    66 1   
    53    19    20 ar  
    54    19    67 1   
    55    20    21 ar  
    56    20    68 1   
    57    21    22 ar  
    58    21    69 1   
    59    23    24 1   
    60    23    70 1   
    61    24    25 2   
    62    24    71 1   
    63    25    26 1   
    64    25    33 1   
    65    26    27 2   
    66    26    28 1   
    67    27    72 1   
    68    27    73 1   
    69    28    29 1   
    70    28    30 1   
    71    28    74 1   
    72    29    75 1   
    73    30    31 1   
    74    30    76 1   
    75    30    77 1   
    76    31    32 1   
    77    31    33 1   
    78    31    78 1   
    79    32    79 1   
    80    33    80 1   
    81    33    81 1   
    82    64    82 1   
    83    65    82 1   
@<TRIPOS>SUBSTRUCTURE
     1 DZW         1 TEMP              0 ****  ****    0 ROOT
