@<TRIPOS>MOLECULE
DZX
   27    28     1     0     0
SMALL
abcg2


@<TRIPOS>ATOM
      1 O1           3.2740     0.7300    -0.2620 oh         1 DZX      -0.661000
      2 C6           2.4720    -0.3630     0.1290 c3         1 DZX       0.175600
      3 C5           1.1090    -0.2440    -0.5320 c6         1 DZX      -0.047700
      4 C4           0.3870     1.0690    -0.2080 c6         1 DZX       0.159300
      5 O5           0.4980     1.3500     1.1690 oh         1 DZX      -0.660000
      6 C3          -1.0920     1.0070    -0.6400 c6         1 DZX       0.135300
      7 O7          -1.8330     2.0300    -0.0010 oh         1 DZX      -0.668000
      8 C2          -1.7430    -0.3410    -0.3410 c5         1 DZX       0.153500
      9 C7          -1.6550    -0.7880     1.1310 c5         1 DZX      -0.097400
     10 C8          -0.3120    -1.5470     1.1990 c5         1 DZX      -0.105400
     11 C1           0.2270    -1.4660    -0.2450 c5         1 DZX       0.147500
     12 N1          -0.9660    -1.3300    -1.0840 n7         1 DZX      -0.836400
     13 H1           4.0910     0.6970     0.2440 ho         1 DZX       0.443000
     14 H61C         2.9220    -1.3150    -0.1860 h1         1 DZX       0.022200
     15 H62C         2.3660    -0.4130     1.2180 h1         1 DZX       0.022200
     16 H5           1.2710    -0.2520    -1.6160 hc         1 DZX       0.071700
     17 H4           0.8630     1.8770    -0.7850 h1         1 DZX       0.041700
     18 HA           0.7750    -2.3680    -0.5290 h1         1 DZX       0.061700
     19 HB          -0.2150     1.9660     1.3790 ho         1 DZX       0.452000
     20 H3          -1.1250     1.1300    -1.7300 h1         1 DZX       0.052700
     21 H7          -1.6470     2.8650    -0.4420 ho         1 DZX       0.447000
     22 H2          -2.7730    -0.3160    -0.7050 h1         1 DZX       0.071700
     23 H71C        -1.7250     0.0300     1.8460 hc         1 DZX       0.053200
     24 H72C        -2.4850    -1.4640     1.3450 hc         1 DZX       0.053200
     25 HC          -1.4710    -2.2100    -1.0840 hn         1 DZX       0.408000
     26 H81C         0.3690    -1.1330     1.9410 hc         1 DZX       0.052200
     27 H82C        -0.4750    -2.5930     1.4640 hc         1 DZX       0.052200
@<TRIPOS>BOND
     1     1     2 1   
     2     1    13 1   
     3     2     3 1   
     4     2    14 1   
     5     2    15 1   
     6     3     4 1   
     7     3    11 1   
     8     3    16 1   
     9     4     5 1   
    10     4     6 1   
    11     4    17 1   
    12     5    19 1   
    13     6     7 1   
    14     6     8 1   
    15     6    20 1   
    16     7    21 1   
    17     8     9 1   
    18     8    12 1   
    19     8    22 1   
    20     9    10 1   
    21     9    23 1   
    22     9    24 1   
    23    10    11 1   
    24    10    26 1   
    25    10    27 1   
    26    11    12 1   
    27    11    18 1   
    28    12    25 1   
@<TRIPOS>SUBSTRUCTURE
     1 DZX         1 TEMP              0 ****  ****    0 ROOT
