@<TRIPOS>MOLECULE
DZX
   27    28     1     0     0
SMALL
No Charge or Current Charge


@<TRIPOS>ATOM
      1 O1           3.5090     0.5900    -0.3370 oh         1 DZX      -0.661000
      2 C6           2.5740    -0.3880     0.1390 c3         1 DZX       0.175600
      3 C5           1.1670    -0.2230    -0.5080 c6         1 DZX      -0.047700
      4 C4           0.4730     1.1330    -0.1530 c6         1 DZX       0.159300
      5 O5           0.5230     1.4380     1.2510 oh         1 DZX      -0.660000
      6 C3          -1.0170     1.1370    -0.6270 c6         1 DZX       0.135300
      7 O7          -1.7270     2.2330    -0.0040 oh         1 DZX      -0.668000
      8 C2          -1.7280    -0.2450    -0.3730 c5         1 DZX       0.153500
      9 C7          -1.7110    -0.7810     1.0920 c5         1 DZX      -0.097400
     10 C8          -0.3700    -1.5870     1.1800 c5         1 DZX      -0.105400
     11 C1           0.2350    -1.4540    -0.2500 c5         1 DZX       0.147500
     12 N1          -0.9770    -1.3060    -1.0830 n7         1 DZX      -0.836400
     13 H1           4.3480     0.4460     0.1540 ho         1 DZX       0.443000
     14 H61C         2.9450    -1.3930    -0.1010 h1         1 DZX       0.022200
     15 H62C         2.4820    -0.3310     1.2320 h1         1 DZX       0.022200
     16 H5           1.3600    -0.2100    -1.5900 hc         1 DZX       0.071700
     17 H4           0.9960     1.9310    -0.7010 h1         1 DZX       0.041700
     18 HA           0.7900    -2.3630    -0.5270 h1         1 DZX       0.061700
     19 HB          -0.3050     1.9550     1.3880 ho         1 DZX       0.452000
     20 H3          -1.0050     1.2940    -1.7160 h1         1 DZX       0.052700
     21 H7          -2.5710     2.3460    -0.4970 ho         1 DZX       0.447000
     22 H2          -2.7570    -0.1700    -0.7530 h1         1 DZX       0.071700
     23 H71C        -1.7740     0.0220     1.8350 hc         1 DZX       0.053200
     24 H72C        -2.5680    -1.4400     1.2730 hc         1 DZX       0.053200
     25 HC          -1.5170    -2.1770    -1.0270 hn         1 DZX       0.408000
     26 H81C         0.3020    -1.2100     1.9580 hc         1 DZX       0.052200
     27 H82C        -0.5680    -2.6380     1.4220 hc         1 DZX       0.052200
@<TRIPOS>BOND
     1     1     2 1   
     2     1    13 1   
     3     2     3 1   
     4     2    14 1   
     5     2    15 1   
     6     3     4 1   
     7     3    11 1   
     8     3    16 1   
     9     4     5 1   
    10     4     6 1   
    11     4    17 1   
    12     5    19 1   
    13     6     7 1   
    14     6     8 1   
    15     6    20 1   
    16     7    21 1   
    17     8     9 1   
    18     8    12 1   
    19     8    22 1   
    20     9    10 1   
    21     9    23 1   
    22     9    24 1   
    23    10    11 1   
    24    10    26 1   
    25    10    27 1   
    26    11    12 1   
    27    11    18 1   
    28    12    25 1   
@<TRIPOS>SUBSTRUCTURE
     1 DZX         1 TEMP              0 ****  ****    0 ROOT
