@<TRIPOS>MOLECULE
DZY
   19    19     1     0     0
SMALL
No Charge or Current Charge


@<TRIPOS>ATOM
      1 O11         -2.8080     1.4720    -0.0990 o          1 DZY      -0.726500
      2 C8          -2.5470     0.2940    -0.2850 c          1 DZY       0.730000
      3 O10         -3.0520    -0.6180     0.3510 o          1 DZY      -0.726500
      4 C4          -1.4490    -0.0490    -1.2800 c3         1 DZY      -0.263700
      5 C1          -0.1180    -0.0430    -0.5920 cc         1 DZY       0.382300
      6 C3           0.4330    -1.0740     0.1440 cd         1 DZY      -0.222300
      7 C7          -0.1530    -2.4300     0.4490 c3         1 DZY       0.002200
      8 S6           2.0210    -0.6400     0.7510 ss         1 DZY      -0.187400
      9 C5           1.8090     0.9010    -0.0660 cd         1 DZY       0.442700
     10 N2           0.6720     1.0730    -0.7190 nc         1 DZY      -0.625000
     11 C9           2.8640     1.9700    -0.0350 c3         1 DZY      -0.118400
     12 H2          -1.5960    -1.0600    -1.6740 hc         1 DZY       0.038200
     13 H3          -1.4090     0.7120    -2.0690 hc         1 DZY       0.038200
     14 H4          -0.5830    -2.8910    -0.4480 hc         1 DZY       0.035700
     15 H5           0.6100    -3.1150     0.8370 hc         1 DZY       0.035700
     16 H6          -0.9450    -2.3550     1.2030 hc         1 DZY       0.035700
     17 H7           3.2260     2.1900    -1.0460 hc         1 DZY       0.043033
     18 H8           2.4690     2.8970     0.3940 hc         1 DZY       0.043033
     19 H9           3.7230     1.6590     0.5690 hc         1 DZY       0.043033
@<TRIPOS>BOND
     1     1     2 1   
     2     2     3 1   
     3     2     4 1   
     4     4     5 1   
     5     4    12 1   
     6     4    13 1   
     7     5     6 2   
     8     5    10 1   
     9     6     7 1   
    10     6     8 1   
    11     7    14 1   
    12     7    15 1   
    13     7    16 1   
    14     8     9 1   
    15     9    10 2   
    16     9    11 1   
    17    11    17 1   
    18    11    18 1   
    19    11    19 1   
@<TRIPOS>SUBSTRUCTURE
     1 DZY         1 TEMP              0 ****  ****    0 ROOT
