@<TRIPOS>MOLECULE
DZY
   19    19     1     0     0
SMALL
abcg2


@<TRIPOS>ATOM
      1 O11         -3.6630     0.9470    -0.3300 o          1 DZY      -0.726500
      2 C8          -2.5290     0.6300     0.0820 c          1 DZY       0.730000
      3 O10         -2.1160     0.6750     1.2530 o          1 DZY      -0.726500
      4 C4          -1.5560     0.1050    -1.0030 c3         1 DZY      -0.263700
      5 C1          -0.1480    -0.0380    -0.5430 cc         1 DZY       0.382300
      6 C3           0.4530    -1.1870    -0.1290 cd         1 DZY      -0.222300
      7 C7          -0.0980    -2.5660    -0.0130 c3         1 DZY       0.002200
      8 S6           2.0830    -0.8360     0.3360 ss         1 DZY      -0.187400
      9 C5           1.8370     0.8280    -0.0680 cd         1 DZY       0.442700
     10 N2           0.6500     1.0810    -0.5060 nc         1 DZY      -0.625000
     11 C9           2.9230     1.8350     0.0880 c3         1 DZY      -0.118400
     12 H2          -1.9400    -0.8550    -1.3590 hc         1 DZY       0.038200
     13 H3          -1.5900     0.7770    -1.8650 hc         1 DZY       0.038200
     14 H4           0.5120    -3.2960    -0.5470 hc         1 DZY       0.035700
     15 H5          -0.1550    -2.8890     1.0280 hc         1 DZY       0.035700
     16 H6          -1.1050    -2.6140    -0.4240 hc         1 DZY       0.035700
     17 H7           3.8150     1.5510    -0.4710 hc         1 DZY       0.043033
     18 H8           2.5800     2.8010    -0.2760 hc         1 DZY       0.043033
     19 H9           3.2150     1.9450     1.1330 hc         1 DZY       0.043033
@<TRIPOS>BOND
     1     1     2 1   
     2     2     3 1   
     3     2     4 1   
     4     4     5 1   
     5     4    12 1   
     6     4    13 1   
     7     5     6 2   
     8     5    10 1   
     9     6     7 1   
    10     6     8 1   
    11     7    14 1   
    12     7    15 1   
    13     7    16 1   
    14     8     9 1   
    15     9    10 2   
    16     9    11 1   
    17    11    17 1   
    18    11    18 1   
    19    11    19 1   
@<TRIPOS>SUBSTRUCTURE
     1 DZY         1 TEMP              0 ****  ****    0 ROOT
