@<TRIPOS>MOLECULE
DZZ
   14    13     1     0     0
SMALL
No Charge or Current Charge


@<TRIPOS>ATOM
      1 O4          -0.8340    -0.2620    -1.9090 oh         1 DZZ      -0.502400
      2 P1           0.0290    -0.6880    -0.6220 p5         1 DZZ       1.196200
      3 S1           0.7490    -2.5040    -0.6960 s          1 DZZ      -0.561000
      4 O2           1.0950     0.5300    -0.5380 os         1 DZZ      -0.361900
      5 C1           2.2210     0.4870     0.3540 c3         1 DZZ      -0.018600
      6 O1          -0.9730    -0.3430     0.6120 os         1 DZZ      -0.361900
      7 C2          -2.0290     0.6330     0.5550 c3         1 DZZ      -0.018600
      8 HO4         -1.0630     0.6680    -1.7480 ho         1 DZZ       0.268000
      9 H11          1.8960     0.3110     1.3880 h1         1 DZZ       0.060033
     10 H12          2.9180    -0.3120     0.0670 h1         1 DZZ       0.060033
     11 H13          2.7660     1.4390     0.3260 h1         1 DZZ       0.060033
     12 H21         -2.4620     0.7810     1.5520 h1         1 DZZ       0.060033
     13 H22         -1.6530     1.6040     0.2040 h1         1 DZZ       0.060033
     14 H23         -2.8340     0.3040    -0.1160 h1         1 DZZ       0.060033
@<TRIPOS>BOND
     1     1     2 1   
     2     1     8 1   
     3     2     3 2   
     4     2     4 1   
     5     2     6 1   
     6     4     5 1   
     7     5     9 1   
     8     5    10 1   
     9     5    11 1   
    10     6     7 1   
    11     7    12 1   
    12     7    13 1   
    13     7    14 1   
@<TRIPOS>SUBSTRUCTURE
     1 DZZ         1 TEMP              0 ****  ****    0 ROOT
