@<TRIPOS>MOLECULE
DZZ
   14    13     1     0     0
SMALL
bcc


@<TRIPOS>ATOM
      1 O4           0.0010     0.7660    -1.6360 oh         1 DZZ      -0.703400
      2 P1          -0.0120    -0.0480    -0.2570 p5         1 DZZ       1.196200
      3 S1          -0.0160    -1.9380    -0.6130 s          1 DZZ      -0.561000
      4 O2           1.1750     0.5230     0.6420 os         1 DZZ      -0.538700
      5 C1           2.5330     0.1810     0.3460 c3         1 DZZ       0.158200
      6 O1          -1.2080     0.5320     0.6240 os         1 DZZ      -0.538700
      7 C2          -2.5630     0.2030     0.3030 c3         1 DZZ       0.158200
      8 HO4          0.0030     1.7310    -1.5430 ho         1 DZZ       0.469000
      9 H11          3.1440     0.6360     1.1200 h1         1 DZZ       0.060033
     10 H12          2.6760    -0.8990     0.3610 h1         1 DZZ       0.060033
     11 H13          2.8350     0.5730    -0.6260 h1         1 DZZ       0.060033
     12 H21         -3.1840     0.6720     1.0600 h1         1 DZZ       0.060033
     13 H22         -2.8420     0.5890    -0.6780 h1         1 DZZ       0.060033
     14 H23         -2.7190    -0.8750     0.3260 h1         1 DZZ       0.060033
@<TRIPOS>BOND
     1     1     2 1   
     2     1     8 1   
     3     2     3 2   
     4     2     4 1   
     5     2     6 1   
     6     4     5 1   
     7     5     9 1   
     8     5    10 1   
     9     5    11 1   
    10     6     7 1   
    11     7    12 1   
    12     7    13 1   
    13     7    14 1   
@<TRIPOS>SUBSTRUCTURE
     1 DZZ         1 TEMP              0 ****  ****    0 ROOT
