@<TRIPOS>MOLECULE
800
   76    78     1     0     0
SMALL
abcg2


@<TRIPOS>ATOM
      1 C1         -42.0450    -1.9780    24.2530 cc         1 800      -0.146300
      2 C10        -37.3890    -3.1480    24.4200 c3         1 800      -0.089600
      3 C11        -38.6200    -1.8060    22.6740 c3         1 800       0.038700
      4 C12        -38.8720    -1.5320    21.1750 c          1 800       0.576100
      5 C13        -46.2660    -2.4570    25.9300 ca         1 800      -0.079000
      6 C14        -39.9720     0.0770    19.6390 c3         1 800       0.039700
      7 C15        -39.1120     1.3100    19.3270 c          1 800       0.580100
      8 C16        -45.3610    -1.4660    25.5950 ca         1 800      -0.129000
      9 C17        -36.9230     2.0200    18.4250 c3         1 800       0.103700
     10 C19        -35.6210     1.4890    19.0320 c3         1 800      -0.071400
     11 C20        -35.7640     1.0930    20.4950 c5         1 800      -0.150700
     12 C21        -36.1700     2.2060    21.4710 c5         1 800      -0.093400
     13 C22        -35.5580     1.7600    22.8070 c5         1 800       0.098000
     14 C24        -34.4770     0.5420    21.1020 c          1 800       0.555000
     15 C3         -44.1220    -1.8710    25.0910 ca         1 800      -0.029200
     16 C30        -37.5020    -2.8200    22.9290 c3         1 800      -0.063700
     17 C32        -36.1680    -2.2860    22.4070 c3         1 800      -0.089600
     18 C34        -41.4630     0.4110    19.5760 c3         1 800      -0.078400
     19 C35        -42.4100    -0.7830    19.4010 c3         1 800      -0.059700
     20 C36        -43.8300    -0.2700    19.1460 c3         1 800      -0.088600
     21 C37        -42.4060    -1.7520    20.5840 c3         1 800      -0.088600
     22 C4         -43.7880    -3.2450    24.9220 ca         1 800      -0.114800
     23 C5         -42.4640    -3.2840    24.3890 cd         1 800      -0.187200
     24 C6         -44.7300    -4.2260    25.2730 ca         1 800      -0.053000
     25 C7         -45.9550    -3.8240    25.7710 ca         1 800      -0.141000
     26 C8         -36.7880     2.3460    16.9410 c3         1 800       0.151600
     27 C9         -40.8060    -1.3860    23.7310 c          1 800       0.632300
     28 N10        -39.8820    -2.2440    23.2600 ns         1 800      -0.486900
     29 N13        -39.5420    -0.3850    20.9540 ns         1 800      -0.503900
     30 N16        -38.0030     1.0590    18.6070 ns         1 800      -0.503900
     31 N2         -43.0460    -1.1340    24.6800 na         1 800      -0.192700
     32 N23        -34.4010     0.9850    22.3720 ns         1 800      -0.515900
     33 O26        -33.6640    -0.1950    20.5470 o          1 800      -0.559000
     34 O29        -40.6480    -0.1570    23.7230 o          1 800      -0.642100
     35 O33        -38.5440    -2.3160    20.2900 o          1 800      -0.608100
     36 O38        -39.4040     2.4200    19.7680 o          1 800      -0.604100
     37 H1         -36.5650    -3.8440    24.5850 hc         1 800       0.041200
     38 H2         -37.1870    -2.2430    24.9980 hc         1 800       0.041200
     39 H3         -38.2980    -3.6040    24.8130 hc         1 800       0.041200
     40 H4         -38.3610    -0.8610    23.1540 h1         1 800       0.085700
     41 H5         -47.2360    -2.1790    26.3230 ha         1 800       0.114000
     42 H6         -39.7370    -0.7200    18.9340 h1         1 800       0.083700
     43 H7         -45.5990    -0.4170    25.7170 ha         1 800       0.119000
     44 H8         -37.2290     2.9250    18.9480 h1         1 800       0.093700
     45 H9         -35.2850     0.6210    18.4570 hc         1 800       0.069200
     46 H10        -34.8550     2.2600    18.9280 hc         1 800       0.069200
     47 H11        -36.4850     0.2730    20.5700 hc         1 800       0.068700
     48 H12        -35.7200     3.1510    21.1570 hc         1 800       0.068200
     49 H13        -37.2460     2.3450    21.5370 hc         1 800       0.068200
     50 H14        -36.2510     1.1320    23.3750 h1         1 800       0.045200
     51 H15        -35.2530     2.5960    23.4350 h1         1 800       0.045200
     52 H16        -37.7520    -3.7350    22.3830 hc         1 800       0.068700
     53 H17        -35.3800    -3.0250    22.5630 hc         1 800       0.041200
     54 H18        -36.2090    -2.0570    21.3430 hc         1 800       0.041200
     55 H19        -35.8860    -1.3780    22.9450 hc         1 800       0.041200
     56 H20        -41.6060     1.0830    18.7260 hc         1 800       0.060700
     57 H21        -41.7400     0.9810    20.4670 hc         1 800       0.060700
     58 H22        -42.0850    -1.3320    18.5090 hc         1 800       0.044700
     59 H23        -43.8640     0.3930    18.2780 hc         1 800       0.034700
     60 H24        -44.5180    -1.0990    18.9710 hc         1 800       0.034700
     61 H25        -44.1950     0.2910    20.0120 hc         1 800       0.034700
     62 H26        -41.4410    -2.2360    20.7200 hc         1 800       0.034700
     63 H27        -42.6570    -1.2300    21.5100 hc         1 800       0.034700
     64 H28        -43.1510    -2.5370    20.4330 hc         1 800       0.034700
     65 H29        -41.9010    -4.1680    24.1390 ha         1 800       0.202000
     66 H30        -44.4980    -5.2770    25.1540 ha         1 800       0.117000
     67 H31        -46.6930    -4.5670    26.0460 ha         1 800       0.114000
     68 H32        -37.7580     2.6840    16.5640 h1         1 800       0.029700
     69 H33        -36.4990     1.4420    16.3920 h1         1 800       0.029700
     70 H34        -40.1080    -3.2250    23.2040 hn         1 800       0.330500
     71 H35        -39.8290     0.1530    21.7630 hn         1 800       0.349500
     72 H36        -37.8330     0.1070    18.3190 hn         1 800       0.320500
     73 H37        -42.9740    -0.1290    24.6630 hn         1 800       0.372000
     74 H38        -33.7060     0.6300    23.0110 hn         1 800       0.325500
     75 H39        -35.6970     3.5490    15.8490 ho         1 800       0.447000
     76 O1         -35.8010     3.3660    16.7900 oh         1 800      -0.665000
@<TRIPOS>BOND
     1     1    23 2   
     2     1    27 1   
     3     1    31 1   
     4     2    16 1   
     5     2    37 1   
     6     2    38 1   
     7     2    39 1   
     8     3     4 1   
     9     3    16 1   
    10     3    28 1   
    11     3    40 1   
    12     4    29 1   
    13     4    35 2   
    14     5     8 ar  
    15     5    25 ar  
    16     5    41 1   
    17     6     7 1   
    18     6    18 1   
    19     6    29 1   
    20     6    42 1   
    21     7    30 1   
    22     7    36 2   
    23     8    15 ar  
    24     8    43 1   
    25     9    10 1   
    26     9    26 1   
    27     9    30 1   
    28     9    44 1   
    29    10    11 1   
    30    10    45 1   
    31    10    46 1   
    32    11    12 1   
    33    11    14 1   
    34    11    47 1   
    35    12    13 1   
    36    12    48 1   
    37    12    49 1   
    38    13    32 1   
    39    13    50 1   
    40    13    51 1   
    41    14    32 1   
    42    14    33 2   
    43    15    22 ar  
    44    15    31 1   
    45    16    17 1   
    46    16    52 1   
    47    17    53 1   
    48    17    54 1   
    49    17    55 1   
    50    18    19 1   
    51    18    56 1   
    52    18    57 1   
    53    19    20 1   
    54    19    21 1   
    55    19    58 1   
    56    20    59 1   
    57    20    60 1   
    58    20    61 1   
    59    21    62 1   
    60    21    63 1   
    61    21    64 1   
    62    22    23 1   
    63    22    24 ar  
    64    23    65 1   
    65    24    25 ar  
    66    24    66 1   
    67    25    67 1   
    68    26    68 1   
    69    26    69 1   
    70    26    76 1   
    71    27    28 1   
    72    27    34 2   
    73    28    70 1   
    74    29    71 1   
    75    30    72 1   
    76    31    73 1   
    77    32    74 1   
    78    75    76 1   
@<TRIPOS>SUBSTRUCTURE
     1 800         1 TEMP              0 ****  ****    0 ROOT
