@<TRIPOS>MOLECULE
800
   76    78     1     0     0
SMALL
No Charge or Current Charge


@<TRIPOS>ATOM
      1 C1         -41.7990    -1.5740    24.1510 cc         1 800      -0.146300
      2 C10        -37.5640    -3.6210    23.8610 c3         1 800      -0.089600
      3 C11        -38.5030    -1.8440    22.2100 c3         1 800       0.038700
      4 C12        -38.7450    -1.4490    20.7160 c          1 800       0.576100
      5 C13        -45.7690    -2.4110    26.4530 ca         1 800      -0.079000
      6 C14        -40.1830     0.0140    19.2040 c3         1 800       0.039700
      7 C15        -39.2330     1.1470    18.6900 c          1 800       0.580100
      8 C16        -44.9420    -1.3470    26.0280 ca         1 800      -0.129000
      9 C17        -36.8030     1.8470    18.6340 c3         1 800       0.103700
     10 C19        -35.5620     1.4540    19.4830 c3         1 800      -0.071400
     11 C20        -35.8510     1.1200    20.9760 c5         1 800      -0.150700
     12 C21        -36.5780     2.2280    21.7860 c5         1 800      -0.093400
     13 C22        -36.2630     1.7920    23.2440 c5         1 800       0.098000
     14 C24        -34.5920     0.8680    21.8160 c          1 800       0.555000
     15 C3         -43.7770    -1.6670    25.3200 ca         1 800      -0.029200
     16 C30        -37.5040    -3.0300    22.4260 c3         1 800      -0.063700
     17 C32        -36.0440    -2.6310    22.0910 c3         1 800      -0.089600
     18 C34        -41.6810     0.4350    19.2640 c3         1 800      -0.078400
     19 C35        -42.7220    -0.7260    19.2770 c3         1 800      -0.059700
     20 C36        -44.1550    -0.1730    19.0960 c3         1 800      -0.088600
     21 C37        -42.6520    -1.6250    20.5340 c3         1 800      -0.088600
     22 C4         -43.4430    -2.9630    25.0440 ca         1 800      -0.114800
     23 C5         -42.2040    -2.9010    24.3130 cd         1 800      -0.187200
     24 C6         -44.2350    -4.0440    25.4470 ca         1 800      -0.053000
     25 C7         -45.4160    -3.7530    26.1640 ca         1 800      -0.141000
     26 C8         -36.4820     2.0130    17.1220 c3         1 800       0.151600
     27 C9         -40.5850    -1.0880    23.4450 c          1 800       0.632300
     28 N10        -39.8030    -2.0730    22.8890 ns         1 800      -0.486900
     29 N13        -39.7090    -0.4850    20.5180 ns         1 800      -0.503900
     30 N16        -37.8890     0.8850    18.8490 ns         1 800      -0.503900
     31 N2         -42.8090    -0.8240    24.7970 na         1 800      -0.192700
     32 N23        -34.9020     1.2820    23.0830 ns         1 800      -0.515900
     33 O26        -33.4580     0.5940    21.4610 o          1 800      -0.559000
     34 O29        -40.3060     0.0960    23.3240 o          1 800      -0.642100
     35 O33        -38.1550    -1.9450    19.7680 o          1 800      -0.608100
     36 O38        -39.6250     2.2200    18.2510 o          1 800      -0.604100
     37 H1         -36.8080    -4.4060    23.9880 hc         1 800       0.041200
     38 H2         -37.3760    -2.8430    24.6110 hc         1 800       0.041200
     39 H3         -38.5400    -4.0750    24.0700 hc         1 800       0.041200
     40 H4         -38.0540    -0.9590    22.6790 h1         1 800       0.085700
     41 H5         -46.6810    -2.1990    27.0060 ha         1 800       0.114000
     42 H6         -40.0890    -0.7990    18.4720 h1         1 800       0.083700
     43 H7         -45.2040    -0.3140    26.2450 ha         1 800       0.119000
     44 H8         -37.1550     2.8220    18.9990 h1         1 800       0.093700
     45 H9         -35.0780     0.5890    19.0130 hc         1 800       0.069200
     46 H10        -34.8330     2.2720    19.4310 hc         1 800       0.069200
     47 H11        -36.4560     0.2110    21.0410 hc         1 800       0.068700
     48 H12        -36.1560     3.2180    21.5770 hc         1 800       0.068200
     49 H13        -37.6550     2.2770    21.5860 hc         1 800       0.068200
     50 H14        -36.9460     1.0040    23.5860 h1         1 800       0.045200
     51 H15        -36.3230     2.6340    23.9470 h1         1 800       0.045200
     52 H16        -37.7930    -3.8380    21.7410 hc         1 800       0.068700
     53 H17        -35.3700    -3.4870    22.2170 hc         1 800       0.041200
     54 H18        -35.9430    -2.2850    21.0560 hc         1 800       0.041200
     55 H19        -35.6990    -1.8280    22.7540 hc         1 800       0.041200
     56 H20        -41.8970     1.0410    18.3760 hc         1 800       0.060700
     57 H21        -41.8430     1.0930    20.1270 hc         1 800       0.060700
     58 H22        -42.5160    -1.3640    18.4080 hc         1 800       0.044700
     59 H23        -44.2350     0.4090    18.1700 hc         1 800       0.034700
     60 H24        -44.8840    -0.9900    19.0420 hc         1 800       0.034700
     61 H25        -44.4310     0.4780    19.9360 hc         1 800       0.034700
     62 H26        -41.7130    -2.1870    20.5700 hc         1 800       0.034700
     63 H27        -42.7440    -1.0250    21.4460 hc         1 800       0.034700
     64 H28        -43.4660    -2.3600    20.5290 hc         1 800       0.034700
     65 H29        -41.6750    -3.7760    23.9440 ha         1 800       0.202000
     66 H30        -43.9510    -5.0690    25.2170 ha         1 800       0.117000
     67 H31        -46.0600    -4.5650    26.4960 ha         1 800       0.114000
     68 H32        -37.4070     2.2620    16.5860 h1         1 800       0.029700
     69 H33        -36.1190     1.0560    16.7260 h1         1 800       0.029700
     70 H34        -40.1240    -3.0240    23.0070 hn         1 800       0.330500
     71 H35        -40.1240    -0.1000    21.3650 hn         1 800       0.349500
     72 H36        -37.6580    -0.0440    19.1860 hn         1 800       0.320500
     73 H37        -42.8240     0.1890    24.8670 hn         1 800       0.372000
     74 H38        -34.1740     1.2900    23.7880 hn         1 800       0.325500
     75 H39        -35.3550     3.1030    15.9390 ho         1 800       0.447000
     76 O1         -35.5030     3.0430    16.9090 oh         1 800      -0.665000
@<TRIPOS>BOND
     1     1    23 2   
     2     1    27 1   
     3     1    31 1   
     4     2    16 1   
     5     2    37 1   
     6     2    38 1   
     7     2    39 1   
     8     3     4 1   
     9     3    16 1   
    10     3    28 1   
    11     3    40 1   
    12     4    29 1   
    13     4    35 2   
    14     5     8 ar  
    15     5    25 ar  
    16     5    41 1   
    17     6     7 1   
    18     6    18 1   
    19     6    29 1   
    20     6    42 1   
    21     7    30 1   
    22     7    36 2   
    23     8    15 ar  
    24     8    43 1   
    25     9    10 1   
    26     9    26 1   
    27     9    30 1   
    28     9    44 1   
    29    10    11 1   
    30    10    45 1   
    31    10    46 1   
    32    11    12 1   
    33    11    14 1   
    34    11    47 1   
    35    12    13 1   
    36    12    48 1   
    37    12    49 1   
    38    13    32 1   
    39    13    50 1   
    40    13    51 1   
    41    14    32 1   
    42    14    33 2   
    43    15    22 ar  
    44    15    31 1   
    45    16    17 1   
    46    16    52 1   
    47    17    53 1   
    48    17    54 1   
    49    17    55 1   
    50    18    19 1   
    51    18    56 1   
    52    18    57 1   
    53    19    20 1   
    54    19    21 1   
    55    19    58 1   
    56    20    59 1   
    57    20    60 1   
    58    20    61 1   
    59    21    62 1   
    60    21    63 1   
    61    21    64 1   
    62    22    23 1   
    63    22    24 ar  
    64    23    65 1   
    65    24    25 ar  
    66    24    66 1   
    67    25    67 1   
    68    26    68 1   
    69    26    69 1   
    70    26    76 1   
    71    27    28 1   
    72    27    34 2   
    73    28    70 1   
    74    29    71 1   
    75    30    72 1   
    76    31    73 1   
    77    32    74 1   
    78    75    76 1   
@<TRIPOS>SUBSTRUCTURE
     1 800         1 TEMP              0 ****  ****    0 ROOT
