@<TRIPOS>MOLECULE
801
   30    32     1     0     0
SMALL
No Charge or Current Charge


@<TRIPOS>ATOM
      1 C1           3.3240    -0.0220     0.0470 ca         1 801      -0.303900
      2 C2           3.1100    -1.4210     0.2090 ca         1 801      -0.103000
      3 C3           1.8060    -1.9560     0.2560 ca         1 801      -0.106000
      4 C4           0.7310    -1.0710     0.1370 ca         1 801       0.001000
      5 C5           0.9170     0.2930    -0.0220 ca         1 801      -0.043000
      6 C6           2.2040     0.8450    -0.0700 ca         1 801      -0.032000
      7 C7           4.7060     0.5310    -0.0030 ce         1 801       0.531400
      8 N1           4.9530     1.7820     0.4880 nv         1 801      -0.591200
      9 N2           5.7140    -0.2200    -0.5390 nv         1 801      -0.575300
     10 N3          -0.6240    -1.3350     0.1500 na         1 801      -0.277900
     11 N4          -0.3120     0.9290    -0.1160 nc         1 801      -0.298600
     12 C8          -1.2230    -0.0930    -0.0070 cc         1 801       0.307500
     13 C9          -2.6270    -0.0300    -0.0340 cd         1 801      -0.145600
     14 N5          -3.2480    -1.2980     0.1080 nd         1 801      -0.565300
     15 C10         -4.5830    -1.2310     0.0810 cc         1 801       0.308500
     16 C11         -5.3910    -0.0520    -0.0720 cc         1 801      -0.248600
     17 C12         -4.7870     1.1790    -0.2100 cd         1 801      -0.317200
     18 C13         -3.3230     1.2960    -0.2030 c          1 801       0.562500
     19 O6          -2.7780     2.3870    -0.3250 o          1 801      -0.644100
     20 HC2          3.9540    -2.1010     0.3120 ha         1 801       0.098000
     21 HC3          1.6430    -3.0240     0.3820 ha         1 801       0.128000
     22 HC6          2.3240     1.9180    -0.2090 ha         1 801       0.127000
     23 HH11         4.2400     2.2020     1.0680 hn         1 801       0.366000
     24 HH12         5.9120     2.0540     0.6530 hn         1 801       0.366000
     25 HH21         6.5810     0.2400    -0.7780 hn         1 801       0.366000
     26 HH22         5.4550    -1.0440    -1.0640 hn         1 801       0.366000
     27 HN3         -1.1050    -2.2190     0.2490 hn         1 801       0.387000
     28 H1          -5.0510    -2.2000     0.1900 h4         1 801       0.001800
     29 HC4         -6.4720    -0.1610    -0.0750 ha         1 801       0.160000
     30 HC5         -5.3410     2.1040    -0.3290 ha         1 801       0.175000
@<TRIPOS>BOND
     1     1     2 ar  
     2     1     6 ar  
     3     1     7 1   
     4     2     3 ar  
     5     2    20 1   
     6     3     4 ar  
     7     3    21 1   
     8     4     5 ar  
     9     4    10 2   
    10     5     6 ar  
    11     5    11 2   
    12     6    22 1   
    13     7     8 2   
    14     7     9 1   
    15     8    23 1   
    16     8    24 1   
    17     9    25 1   
    18     9    26 1   
    19    10    12 1   
    20    10    27 1   
    21    11    12 1   
    22    12    13 2   
    23    13    14 1   
    24    13    18 1   
    25    14    15 2   
    26    15    16 1   
    27    15    28 1   
    28    16    17 2   
    29    16    29 1   
    30    17    18 1   
    31    17    30 1   
    32    18    19 2   
@<TRIPOS>SUBSTRUCTURE
     1 801         1 TEMP              0 ****  ****    0 ROOT
