@<TRIPOS>MOLECULE
801
   30    32     1     0     0
SMALL
abcg2


@<TRIPOS>ATOM
      1 C1           3.2880    -0.0330     0.0360 ca         1 801      -0.303900
      2 C2           3.1000    -1.4190     0.1890 ca         1 801      -0.103000
      3 C3           1.8350    -1.9710     0.2420 ca         1 801      -0.106000
      4 C4           0.7600    -1.0980     0.1290 ca         1 801       0.001000
      5 C5           0.9270     0.2950    -0.0290 ca         1 801      -0.043000
      6 C6           2.2030     0.8360    -0.0710 ca         1 801      -0.032000
      7 C7           4.6480     0.5090    -0.0010 ce         1 801       0.531400
      8 N1           4.8890     1.6920     0.5180 nv         1 801      -0.591200
      9 N2           5.6140    -0.1910    -0.5510 nv         1 801      -0.575300
     10 N3          -0.5830    -1.2770     0.1320 na         1 801      -0.277900
     11 N4          -0.2900     0.9130    -0.1200 nc         1 801      -0.298600
     12 C8          -1.1780    -0.0500    -0.0180 cc         1 801       0.307500
     13 C9          -2.6260     0.0340    -0.0430 cd         1 801      -0.145600
     14 N5          -3.2380    -1.1520     0.0840 nd         1 801      -0.565300
     15 C10         -4.5490    -1.2290     0.0790 cc         1 801       0.308500
     16 C11         -5.3480    -0.0850    -0.0590 cc         1 801      -0.248600
     17 C12         -4.7510     1.1400    -0.1890 cd         1 801      -0.317200
     18 C13         -3.3200     1.2900    -0.1890 c          1 801       0.562500
     19 O6          -2.7600     2.4040    -0.3030 o          1 801      -0.644100
     20 HC2          3.9550    -2.0730     0.3000 ha         1 801       0.098000
     21 HC3          1.6980    -3.0350     0.3730 ha         1 801       0.128000
     22 HC6          2.3360     1.9010    -0.2140 ha         1 801       0.127000
     23 HH11         4.1890     2.1670     1.0640 hn         1 801       0.366000
     24 HH12         5.7980     2.1260     0.4660 hn         1 801       0.366000
     25 HH21         6.5740     0.1170    -0.5370 hn         1 801       0.366000
     26 HH22         5.4110    -1.0300    -1.0690 hn         1 801       0.366000
     27 HN3         -1.0970    -2.1400     0.2300 hn         1 801       0.387000
     28 H1          -4.9920    -2.2130     0.1840 h4         1 801       0.001800
     29 HC4         -6.4280    -0.1790    -0.0610 ha         1 801       0.160000
     30 HC5         -5.3560     2.0350    -0.2980 ha         1 801       0.175000
@<TRIPOS>BOND
     1     1     2 ar  
     2     1     6 ar  
     3     1     7 1   
     4     2     3 ar  
     5     2    20 1   
     6     3     4 ar  
     7     3    21 1   
     8     4     5 ar  
     9     4    10 2   
    10     5     6 ar  
    11     5    11 2   
    12     6    22 1   
    13     7     8 2   
    14     7     9 1   
    15     8    23 1   
    16     8    24 1   
    17     9    25 1   
    18     9    26 1   
    19    10    12 1   
    20    10    27 1   
    21    11    12 1   
    22    12    13 2   
    23    13    14 1   
    24    13    18 1   
    25    14    15 2   
    26    15    16 1   
    27    15    28 1   
    28    16    17 2   
    29    16    29 1   
    30    17    18 1   
    31    17    30 1   
    32    18    19 2   
@<TRIPOS>SUBSTRUCTURE
     1 801         1 TEMP              0 ****  ****    0 ROOT
