@<TRIPOS>MOLECULE
802
   31    33     1     0     0
SMALL
bcc


@<TRIPOS>ATOM
      1 H1           3.6550     0.1200     0.0000 ca         1 802      -0.220000
      2 H2           3.5500    -1.2810     0.0690 ca         1 802      -0.122000
      3 H3           2.3170    -1.9060     0.0870 ca         1 802      -0.116000
      4 H4           1.1930    -1.0920     0.0460 ca         1 802       0.014000
      5 H5           1.2790     0.3190    -0.0170 ca         1 802      -0.046000
      6 H6           2.5230     0.9320    -0.0450 ca         1 802      -0.054000
      7 H7           4.9830     0.7390    -0.0310 c2         1 802       0.353000
      8 H1           5.1690     1.8390    -0.7240 n8         1 802      -0.336500
      9 H2           5.9740     0.1890     0.6320 n8         1 802      -0.336500
     10 H3          -0.1380    -1.3500     0.0560 na         1 802      -0.205000
     11 H4           0.0290     0.8700    -0.0380 n2         1 802      -0.219000
     12 H8          -0.7970    -0.1570     0.0040 cc         1 802       0.173000
     13 H9          -2.2410    -0.1040    -0.0020 cd         1 802      -0.289000
     14 H10         -2.8620     1.1530    -0.0480 cd         1 802      -0.041000
     15 H11         -4.2270     1.2400    -0.0570 cc         1 802      -0.057000
     16 H3          -4.8250     2.4550    -0.1010 f          1 802      -0.139000
     17 H12         -5.0210     0.0970    -0.0220 cc         1 802      -0.078000
     18 H13         -4.4250    -1.1420     0.0240 cd         1 802      -0.256000
     19 H14         -3.0050    -1.3210     0.0380 c          1 802       0.291000
     20 H6          -2.4810    -2.4790     0.0840 o          1 802      -0.507000
     21 HC2          4.4420    -1.8940     0.0750 ha         1 802       0.118000
     22 HC3          2.2420    -2.9840     0.1240 ha         1 802       0.152000
     23 HC6          2.5980     2.0120    -0.0700 ha         1 802       0.139000
     24 HH11         4.4550     2.1820    -1.3460 ha         1 802       0.265750
     25 HH12         6.0510     2.3280    -0.7290 ha         1 802       0.265750
     26 HH21         6.9160     0.5460     0.5830 ha         1 802       0.265750
     27 HH22         5.8070    -0.5690     1.2730 ha         1 802       0.265750
     28 HN3         -0.6820    -2.2170     0.0900 ha         1 802       0.329000
     29 H1          -2.2530     2.0480    -0.0770 ha         1 802       0.139000
     30 HC4         -6.1010     0.1850    -0.0290 ha         1 802       0.124000
     31 HC5         -5.0480    -2.0290     0.0520 ha         1 802       0.128000
@<TRIPOS>BOND
     1     1     2 ar  
     2     1     6 ar  
     3     1     7 1   
     4     2     3 ar  
     5     2    21 1   
     6     3     4 ar  
     7     3    22 1   
     8     4     5 ar  
     9     4    10 2   
    10     5     6 ar  
    11     5    11 2   
    12     6    23 1   
    13     7     8 2   
    14     7     9 1   
    15     8    24 1   
    16     8    25 1   
    17     9    26 1   
    18     9    27 1   
    19    10    12 1   
    20    10    28 1   
    21    11    12 1   
    22    12    13 2   
    23    13    14 1   
    24    13    19 1   
    25    14    15 2   
    26    14    29 1   
    27    15    16 1   
    28    15    17 1   
    29    17    18 2   
    30    17    30 1   
    31    18    19 1   
    32    18    31 1   
    33    19    20 2   
@<TRIPOS>SUBSTRUCTURE
     1 802         1 TEMP              0 ****  ****    0 ROOT
