@<TRIPOS>MOLECULE
802
   31    33     1     0     0
SMALL
No Charge or Current Charge


@<TRIPOS>ATOM
      1 C1           3.6960     0.1360    -0.0090 ca         1 802      -0.303900
      2 C2           3.5490    -1.2800     0.0450 ca         1 802      -0.104000
      3 C3           2.2710    -1.8780     0.0650 ca         1 802      -0.098000
      4 C4           1.1550    -1.0380     0.0320 ca         1 802       0.014000
      5 C5           1.2760     0.3430    -0.0200 ca         1 802      -0.046000
      6 C6           2.5350     0.9560    -0.0420 ca         1 802      -0.036000
      7 C7           5.0500     0.7550    -0.0300 ce         1 802       0.530400
      8 N1           5.2480     1.9280    -0.7010 nv         1 802      -0.591200
      9 N2           6.0820     0.1430     0.6240 nv         1 802      -0.575300
     10 N3          -0.1860    -1.3630     0.0430 na         1 802      -0.277900
     11 N4           0.0170     0.9250    -0.0410 nc         1 802      -0.359600
     12 C8          -0.8360    -0.1510    -0.0010 cc         1 802       0.286500
     13 C9          -2.2290    -0.1530    -0.0010 cd         1 802      -0.308200
     14 C10         -2.8460     1.1580    -0.0490 cd         1 802      -0.091000
     15 C11         -4.2260     1.2450    -0.0520 cc         1 802       0.005500
     16 F3          -4.8240     2.4440    -0.0960 f          1 802      -0.201500
     17 C12         -5.0610     0.0790    -0.0080 cc         1 802      -0.128000
     18 C13         -4.4980    -1.1790     0.0380 cd         1 802      -0.325200
     19 C14         -3.0460    -1.4030     0.0460 c          1 802       0.568500
     20 O6          -2.5890    -2.5410     0.0880 o          1 802      -0.746100
     21 HC2          4.4240    -1.9260     0.0590 ha         1 802       0.100000
     22 HC3          2.1600    -2.9600     0.1040 ha         1 802       0.134000
     23 HC6          2.6040     2.0410    -0.0700 ha         1 802       0.121000
     24 HH11         4.5250     2.2230    -1.3440 hn         1 802       0.365750
     25 HH12         6.1970     2.2180    -0.8980 hn         1 802       0.365750
     26 HH21         6.9230     0.6750     0.7990 hn         1 802       0.365750
     27 HH22         5.8520    -0.6030     1.2660 hn         1 802       0.365750
     28 HN3         -0.6400    -2.2720     0.0770 hn         1 802       0.429000
     29 H1          -2.2630     2.0750    -0.0830 ha         1 802       0.189000
     30 HC4         -6.1400     0.2100    -0.0130 ha         1 802       0.174000
     31 HC5         -5.1020    -2.0780     0.0710 ha         1 802       0.178000
@<TRIPOS>BOND
     1     1     2 ar  
     2     1     6 ar  
     3     1     7 1   
     4     2     3 ar  
     5     2    21 1   
     6     3     4 ar  
     7     3    22 1   
     8     4     5 ar  
     9     4    10 2   
    10     5     6 ar  
    11     5    11 2   
    12     6    23 1   
    13     7     8 2   
    14     7     9 1   
    15     8    24 1   
    16     8    25 1   
    17     9    26 1   
    18     9    27 1   
    19    10    12 1   
    20    10    28 1   
    21    11    12 1   
    22    12    13 2   
    23    13    14 1   
    24    13    19 1   
    25    14    15 2   
    26    14    29 1   
    27    15    16 1   
    28    15    17 1   
    29    17    18 2   
    30    17    30 1   
    31    18    19 1   
    32    18    31 1   
    33    19    20 2   
@<TRIPOS>SUBSTRUCTURE
     1 802         1 TEMP              0 ****  ****    0 ROOT
