@<TRIPOS>MOLECULE
803
   65    67     1     0     0
SMALL
No Charge or Current Charge


@<TRIPOS>ATOM
      1 C1          52.3730    18.7880    23.1070 c6         1 803       0.182300
      2 C2          52.3520    17.2360    23.0920 c6         1 803      -0.093400
      3 C3          52.5160    16.6090    24.5030 c6         1 803      -0.018500
      4 C21         54.0000    16.4710    24.9420 c3         1 803      -0.082100
      5 C4          51.7540    17.3870    25.5690 c2         1 803      -0.198200
      6 C24         51.2070    18.6120    25.3830 ce         1 803      -0.076200
      7 C5          50.5100    19.3080    26.4760 ce         1 803      -0.177000
      8 C6          49.9890    20.5480    26.3670 c2         1 803      -0.209200
      9 C7          50.0500    21.3610    25.0860 c6         1 803      -0.027500
     10 C20         48.6530    21.2950    24.4030 c3         1 803      -0.086100
     11 C8          51.2440    20.8930    24.1860 c6         1 803      -0.044700
     12 C9          51.2220    19.3310    24.0110 c6         1 803      -0.014500
     13 C10         51.3360    21.6740    22.8280 c3         1 803      -0.071400
     14 C11         51.4640    23.2140    22.9540 c3         1 803      -0.082400
     15 C12         51.7490    23.9470    21.6140 c6         1 803       0.203300
     16 C13         51.9790    25.4600    21.8070 c6         1 803      -0.111400
     17 C14         52.1190    26.1600    20.4460 c6         1 803       0.179300
     18 O3          53.2810    25.6950    19.7610 oh         1 803      -0.658000
     19 C15         50.8740    25.8710    19.6020 c6         1 803      -0.235400
     20 C22         50.4620    24.3950    19.5680 c          1 803       0.684100
     21 O2          49.8570    23.9270    18.6150 o          1 803      -0.509000
     22 O1          50.6430    23.6790    20.7250 os         1 803      -0.457100
     23 O4          53.6480    19.3110    23.5350 os         1 803      -0.441100
     24 C23         54.7490    19.2540    22.7240 c          1 803       0.592100
     25 O5          54.7370    18.8410    21.5720 o          1 803      -0.497000
     26 C16         55.9840    19.8810    23.4000 c3         1 803      -0.118700
     27 C19         57.1370    18.8550    23.5020 c3         1 803      -0.085100
     28 C17         56.4290    21.1940    22.7010 c3         1 803      -0.068400
     29 C18         55.3250    22.2700    22.6220 c3         1 803      -0.094100
     30 H1          52.1880    19.1340    22.0800 h1         1 803       0.068700
     31 H21         51.3880    16.9120    22.6760 hc         1 803       0.056700
     32 H22         53.1120    16.8420    22.4050 hc         1 803       0.056700
     33 H3          52.1190    15.5840    24.4670 hc         1 803       0.049700
     34 H211        54.0800    15.8900    25.8680 hc         1 803       0.035367
     35 H212        54.5960    15.9570    24.1800 hc         1 803       0.035367
     36 H213        54.4630    17.4460    25.1320 hc         1 803       0.035367
     37 H4          51.6960    16.9050    26.5460 ha         1 803       0.171000
     38 H5          50.4360    18.7760    27.4260 ha         1 803       0.173000
     39 H6          49.4910    21.0170    27.2180 ha         1 803       0.172000
     40 H7          50.2070    22.4110    25.3680 hc         1 803       0.046700
     41 H201        48.6000    21.9360    23.5160 hc         1 803       0.037367
     42 H202        48.3940    20.2740    24.0980 hc         1 803       0.037367
     43 H203        47.8690    21.6370    25.0890 hc         1 803       0.037367
     44 H8          52.1660    21.1440    24.7280 hc         1 803       0.059700
     45 H9          50.2850    19.0650    23.5050 hc         1 803       0.066700
     46 H101        52.2130    21.3360    22.2680 hc         1 803       0.053200
     47 H102        50.4740    21.4320    22.1940 hc         1 803       0.053200
     48 H111        50.5480    23.6220    23.3970 hc         1 803       0.048700
     49 H112        52.2740    23.4340    23.6600 hc         1 803       0.048700
     50 H12         52.6570    23.5130    21.1690 h1         1 803       0.076700
     51 H131        51.1420    25.8990    22.3680 hc         1 803       0.064200
     52 H132        52.8810    25.6300    22.4100 hc         1 803       0.064200
     53 H14         52.1960    27.2450    20.6130 h1         1 803       0.044700
     54 HO3         53.4540    26.3300    19.0310 ho         1 803       0.451000
     55 H151        50.0380    26.3880    20.0910 hc         1 803       0.080200
     56 H152        50.9320    26.2710    18.5820 hc         1 803       0.080200
     57 H16         55.6950    20.1410    24.4260 hc         1 803       0.072700
     58 H191        57.9890    19.2800    24.0470 hc         1 803       0.044033
     59 H192        56.8070    17.9550    24.0350 hc         1 803       0.044033
     60 H193        57.4820    18.5550    22.5050 hc         1 803       0.044033
     61 H171        57.2870    21.6130    23.2410 hc         1 803       0.050700
     62 H172        56.7770    20.9680    21.6850 hc         1 803       0.050700
     63 H181        55.7300    23.2020    22.2110 hc         1 803       0.035367
     64 H182        54.5070    21.9430    21.9700 hc         1 803       0.035367
     65 H183        54.9150    22.4840    23.6170 hc         1 803       0.035367
@<TRIPOS>BOND
     1     1     2 1   
     2     1    12 1   
     3     1    23 1   
     4     1    30 1   
     5     2     3 1   
     6     2    31 1   
     7     2    32 1   
     8     3     4 1   
     9     3     5 1   
    10     3    33 1   
    11     4    34 1   
    12     4    35 1   
    13     4    36 1   
    14     5     6 2   
    15     5    37 1   
    16     6     7 1   
    17     6    12 1   
    18     7     8 2   
    19     7    38 1   
    20     8     9 1   
    21     8    39 1   
    22     9    10 1   
    23     9    11 1   
    24     9    40 1   
    25    10    41 1   
    26    10    42 1   
    27    10    43 1   
    28    11    12 1   
    29    11    13 1   
    30    11    44 1   
    31    12    45 1   
    32    13    14 1   
    33    13    46 1   
    34    13    47 1   
    35    14    15 1   
    36    14    48 1   
    37    14    49 1   
    38    15    16 1   
    39    15    22 1   
    40    15    50 1   
    41    16    17 1   
    42    16    51 1   
    43    16    52 1   
    44    17    18 1   
    45    17    19 1   
    46    17    53 1   
    47    18    54 1   
    48    19    20 1   
    49    19    55 1   
    50    19    56 1   
    51    20    21 2   
    52    20    22 1   
    53    23    24 1   
    54    24    25 2   
    55    24    26 1   
    56    26    27 1   
    57    26    28 1   
    58    26    57 1   
    59    27    58 1   
    60    27    59 1   
    61    27    60 1   
    62    28    29 1   
    63    28    61 1   
    64    28    62 1   
    65    29    63 1   
    66    29    64 1   
    67    29    65 1   
@<TRIPOS>SUBSTRUCTURE
     1 803         1 TEMP              0 ****  ****    0 ROOT
