@<TRIPOS>MOLECULE
803
   65    67     1     0     0
SMALL
bcc


@<TRIPOS>ATOM
      1 C1          52.4260    18.7800    23.0790 c6         1 803       0.159100
      2 C2          52.3820    17.2620    23.0920 c6         1 803      -0.093400
      3 C3          52.4850    16.6480    24.4920 c6         1 803      -0.018500
      4 C21         53.9200    16.3570    24.9440 c3         1 803      -0.082100
      5 C4          51.7730    17.4850    25.5060 c2         1 803      -0.148200
      6 C24         51.2520    18.6980    25.2830 ce         1 803      -0.076200
      7 C5          50.5530    19.4100    26.3430 ce         1 803      -0.127000
      8 C6          50.0410    20.6310    26.1770 c2         1 803      -0.159200
      9 C7          50.1720    21.4100    24.9040 c6         1 803      -0.027500
     10 C20         48.8400    21.4130    24.1460 c3         1 803      -0.086100
     11 C8          51.3670    20.9040    24.0740 c6         1 803      -0.044700
     12 C9          51.3080    19.3710    23.9300 c6         1 803      -0.014500
     13 C10         51.4790    21.6110    22.7220 c3         1 803      -0.071400
     14 C11         51.6020    23.1260    22.8450 c3         1 803      -0.082400
     15 C12         51.8410    23.8380    21.5260 c6         1 803       0.180100
     16 C13         52.1400    25.3130    21.7200 c6         1 803      -0.111400
     17 C14         52.0080    26.0770    20.4190 c6         1 803       0.156100
     18 O3          52.9370    25.5370    19.5040 oh         1 803      -0.595800
     19 C15         50.5810    25.9110    19.9260 c6         1 803      -0.235400
     20 C22         50.1280    24.4760    19.8750 c          1 803       0.759600
     21 O2          49.2420    24.0980    19.1500 o          1 803      -0.584500
     22 O1          50.6810    23.5960    20.6980 os         1 803      -0.433900
     23 O4          53.6660    19.2650    23.6250 os         1 803      -0.417900
     24 C23         54.7300    19.3690    22.8410 c          1 803       0.641100
     25 O5          54.7370    19.0660    21.6720 o          1 803      -0.546000
     26 C16         55.9370    19.9120    23.5730 c3         1 803      -0.118700
     27 C19         57.0390    18.8530    23.5910 c3         1 803      -0.085100
     28 C17         56.4190    21.2040    22.9060 c3         1 803      -0.068400
     29 C18         55.3710    22.3080    22.8730 c3         1 803      -0.094100
     30 H1          52.3260    19.1270    22.0490 h1         1 803       0.068700
     31 H21         51.4240    16.9810    22.6470 hc         1 803       0.056700
     32 H22         53.1530    16.8530    22.4350 hc         1 803       0.056700
     33 H3          51.9750    15.6780    24.4530 hc         1 803       0.049700
     34 H211        53.9210    15.8240    25.8960 hc         1 803       0.035367
     35 H212        54.4360    15.7290    24.2150 hc         1 803       0.035367
     36 H213        54.4970    17.2700    25.0780 hc         1 803       0.035367
     37 H4          51.6870    17.0620    26.5050 ha         1 803       0.121000
     38 H5          50.4410    18.9000    27.2940 ha         1 803       0.123000
     39 H6          49.4930    21.0970    26.9890 ha         1 803       0.122000
     40 H7          50.3810    22.4470    25.1890 hc         1 803       0.046700
     41 H201        48.8610    22.0940    23.2940 hc         1 803       0.037367
     42 H202        48.5860    20.4180    23.7760 hc         1 803       0.037367
     43 H203        48.0280    21.7350    24.8000 hc         1 803       0.037367
     44 H8          52.2660    21.1530    24.6490 hc         1 803       0.059700
     45 H9          50.3780    19.1270    23.3990 hc         1 803       0.066700
     46 H101        52.3680    21.2510    22.1980 hc         1 803       0.053200
     47 H102        50.6310    21.3450    22.0860 hc         1 803       0.053200
     48 H111        50.7170    23.5640    23.3150 hc         1 803       0.048700
     49 H112        52.4450    23.3600    23.5040 hc         1 803       0.048700
     50 H12         52.6780    23.3680    21.0000 h1         1 803       0.076700
     51 H131        51.4610    25.7500    22.4560 hc         1 803       0.064200
     52 H132        53.1500    25.4070    22.1240 hc         1 803       0.064200
     53 H14         52.2020    27.1410    20.5960 h1         1 803       0.044700
     54 HO3         52.8600    26.0110    18.6700 ho         1 803       0.412000
     55 H151        49.9020    26.4380    20.6050 hc         1 803       0.080200
     56 H152        50.4300    26.3550    18.9410 hc         1 803       0.080200
     57 H16         55.6500    20.1390    24.6020 hc         1 803       0.072700
     58 H191        57.9100    19.2300    24.1270 hc         1 803       0.044033
     59 H192        56.7170    17.9390    24.0920 hc         1 803       0.044033
     60 H193        57.3530    18.5910    22.5800 hc         1 803       0.044033
     61 H171        57.2990    21.5480    23.4530 hc         1 803       0.050700
     62 H172        56.7570    20.9810    21.8900 hc         1 803       0.050700
     63 H181        55.7770    23.2220    22.4390 hc         1 803       0.035367
     64 H182        54.5090    22.0240    22.2670 hc         1 803       0.035367
     65 H183        55.0060    22.5480    23.8730 hc         1 803       0.035367
@<TRIPOS>BOND
     1     1     2 1   
     2     1    12 1   
     3     1    23 1   
     4     1    30 1   
     5     2     3 1   
     6     2    31 1   
     7     2    32 1   
     8     3     4 1   
     9     3     5 1   
    10     3    33 1   
    11     4    34 1   
    12     4    35 1   
    13     4    36 1   
    14     5     6 2   
    15     5    37 1   
    16     6     7 1   
    17     6    12 1   
    18     7     8 2   
    19     7    38 1   
    20     8     9 1   
    21     8    39 1   
    22     9    10 1   
    23     9    11 1   
    24     9    40 1   
    25    10    41 1   
    26    10    42 1   
    27    10    43 1   
    28    11    12 1   
    29    11    13 1   
    30    11    44 1   
    31    12    45 1   
    32    13    14 1   
    33    13    46 1   
    34    13    47 1   
    35    14    15 1   
    36    14    48 1   
    37    14    49 1   
    38    15    16 1   
    39    15    22 1   
    40    15    50 1   
    41    16    17 1   
    42    16    51 1   
    43    16    52 1   
    44    17    18 1   
    45    17    19 1   
    46    17    53 1   
    47    18    54 1   
    48    19    20 1   
    49    19    55 1   
    50    19    56 1   
    51    20    21 2   
    52    20    22 1   
    53    23    24 1   
    54    24    25 2   
    55    24    26 1   
    56    26    27 1   
    57    26    28 1   
    58    26    57 1   
    59    27    58 1   
    60    27    59 1   
    61    27    60 1   
    62    28    29 1   
    63    28    61 1   
    64    28    62 1   
    65    29    63 1   
    66    29    64 1   
    67    29    65 1   
@<TRIPOS>SUBSTRUCTURE
     1 803         1 TEMP              0 ****  ****    0 ROOT
