@<TRIPOS>MOLECULE
804
   60    65     1     0     0
SMALL
No Charge or Current Charge


@<TRIPOS>ATOM
      1 CAA          5.8580    -1.2350    -0.3080 ca         1 804      -0.081500
      2 CAB          6.0250     0.9050     0.8210 ca         1 804      -0.081500
      3 CAC          4.4630    -1.0830    -0.3860 ca         1 804      -0.108000
      4 CAD          4.6300     1.0530     0.7410 ca         1 804      -0.108000
      5 CAE          1.7390     1.5000    -0.1360 ca         1 804      -0.095500
      6 CAF          1.4630    -0.8880     0.1530 ca         1 804      -0.095500
      7 CAG          0.3440     1.6530    -0.2140 ca         1 804      -0.100500
      8 CAH          0.0680    -0.7360     0.0760 ca         1 804      -0.100500
      9 CAI         -6.4780     1.7170    -0.5260 ca         1 804      -0.129000
     10 CAJ         -5.2140     2.3420    -0.5470 ca         1 804      -0.068000
     11 CAK         -5.4140    -0.4640    -0.1960 ca         1 804      -0.075000
     12 CAL         -2.6940     1.8730    -0.3690 cc         1 804      -0.223200
     13 CAM         10.7850    -0.5670    -0.5320 c6         1 804      -0.130400
     14 CAN        -10.1360    -1.6720     0.7930 c6         1 804      -0.130400
     15 CAO         10.1390    -1.7590     0.1980 c6         1 804       0.118800
     16 CAP         -9.3190    -2.3400    -0.3290 c6         1 804       0.120800
     17 CAQ         10.3810     0.7440     0.1640 c6         1 804       0.220800
     18 CAR        -10.3260    -0.1790     0.4730 c6         1 804       0.219800
     19 NAS          8.6780    -1.5980     0.3300 n2         1 804      -0.669900
     20 NAT         -8.0470    -1.6340    -0.5770 n2         1 804      -0.677900
     21 NAU          8.9280     0.7480     0.3970 nu         1 804      -0.944400
     22 NAV         -9.0350     0.4060     0.0750 nu         1 804      -0.943400
     23 NAW         -2.9130    -0.3760    -0.0960 na         1 804      -0.213700
     24 CAX          8.1520    -0.4150     0.3920 ce         1 804       0.675800
     25 CAY         -7.9450    -0.3630    -0.3430 ce         1 804       0.680800
     26 CAZ          6.6650    -0.2330     0.2780 ca         1 804      -0.132900
     27 CBA         -6.5990     0.3090    -0.3320 ca         1 804      -0.124900
     28 CBB          3.8180     0.0660     0.1320 cp         1 804      -0.024000
     29 CBC          2.3300     0.2270     0.0490 cp         1 804      -0.030000
     30 CBD         -0.5120     0.5370    -0.1090 ca         1 804      -0.028800
     31 CBE         -1.9820     0.6900    -0.1900 cd         1 804      -0.002300
     32 CBF         -4.0830     1.5360    -0.3850 ca         1 804      -0.089800
     33 CBG         -4.1730     0.1870    -0.2200 ca         1 804      -0.054200
     34 HAA          6.3120    -2.1340    -0.7200 ha         1 804       0.126500
     35 HAB          6.6030     1.6780     1.3240 ha         1 804       0.126500
     36 HAC          3.8780    -1.8640    -0.8660 ha         1 804       0.116500
     37 HAD          4.1720     1.9380     1.1760 ha         1 804       0.116500
     38 HAE          2.3690     2.3810    -0.2340 ha         1 804       0.118000
     39 HAF          1.8740    -1.8820     0.3100 ha         1 804       0.118000
     40 HAG         -0.0600     2.6500    -0.3610 ha         1 804       0.114000
     41 HAH         -0.5560    -1.6210     0.1660 ha         1 804       0.114000
     42 HAI         -7.3610     2.3340    -0.6760 ha         1 804       0.112000
     43 HAJ         -5.1200     3.4160    -0.6930 ha         1 804       0.116000
     44 HAK         -5.4590    -1.5430    -0.0660 ha         1 804       0.137000
     45 HAL         -2.2720     2.8680    -0.4770 ha         1 804       0.205000
     46 HAM         11.8780    -0.6700    -0.5470 hc         1 804       0.052700
     47 HAMA        10.4510    -0.5490    -1.5790 hc         1 804       0.052700
     48 HANA        -9.6090    -1.7820     1.7500 hc         1 804       0.051700
     49 HAO         10.3520    -2.6900    -0.3480 h1         1 804       0.054700
     50 HAOA        10.5750    -1.8560     1.2040 h1         1 804       0.054700
     51 HAP         -9.1060    -3.3850    -0.0620 h1         1 804       0.052700
     52 HAPA        -9.9060    -2.3460    -1.2600 h1         1 804       0.052700
     53 HAQ         10.9130     0.8230     1.1250 h1         1 804       0.042700
     54 HAQA        10.6840     1.6020    -0.4540 h1         1 804       0.042700
     55 HAR        -11.0520    -0.0740    -0.3470 h1         1 804       0.042200
     56 HARA       -10.7400     0.3390     1.3510 h1         1 804       0.042200
     57 HNAU         8.4070     1.6000     0.2090 hn         1 804       0.483000
     58 HNAV        -8.7850     1.3230     0.4320 hn         1 804       0.484000
     59 HNAW        -2.6970    -1.3580     0.0360 hn         1 804       0.352000
     60 HAN        -11.1100    -2.1650     0.9060 hc         1 804       0.051700
@<TRIPOS>BOND
     1     1     3 ar  
     2     1    26 ar  
     3     1    34 1   
     4     2     4 ar  
     5     2    26 ar  
     6     2    35 1   
     7     3    28 ar  
     8     3    36 1   
     9     4    28 ar  
    10     4    37 1   
    11     5     7 ar  
    12     5    29 ar  
    13     5    38 1   
    14     6     8 ar  
    15     6    29 ar  
    16     6    39 1   
    17     7    30 ar  
    18     7    40 1   
    19     8    30 ar  
    20     8    41 1   
    21     9    10 ar  
    22     9    27 ar  
    23     9    42 1   
    24    10    32 ar  
    25    10    43 1   
    26    11    27 ar  
    27    11    33 ar  
    28    11    44 1   
    29    12    31 2   
    30    12    32 1   
    31    12    45 1   
    32    13    15 1   
    33    13    17 1   
    34    13    46 1   
    35    13    47 1   
    36    14    16 1   
    37    14    18 1   
    38    14    48 1   
    39    14    60 1   
    40    15    19 1   
    41    15    49 1   
    42    15    50 1   
    43    16    20 1   
    44    16    51 1   
    45    16    52 1   
    46    17    21 1   
    47    17    53 1   
    48    17    54 1   
    49    18    22 1   
    50    18    55 1   
    51    18    56 1   
    52    19    24 2   
    53    20    25 2   
    54    21    24 1   
    55    21    57 1   
    56    22    25 1   
    57    22    58 1   
    58    23    31 1   
    59    23    33 1   
    60    23    59 1   
    61    24    26 1   
    62    25    27 1   
    63    28    29 1   
    64    30    31 1   
    65    32    33 ar  
@<TRIPOS>SUBSTRUCTURE
     1 804         1 TEMP              0 ****  ****    0 ROOT
