@<TRIPOS>MOLECULE
804
   60    65     1     0     0
SMALL
abcg2


@<TRIPOS>ATOM
      1 CAA          5.7180    -1.2590    -0.1850 ca         1 804      -0.081500
      2 CAB          5.9740     1.0210     0.4960 ca         1 804      -0.081500
      3 CAC          4.3460    -1.0930    -0.2280 ca         1 804      -0.108000
      4 CAD          4.5990     1.1860     0.4560 ca         1 804      -0.108000
      5 CAE          1.7300     1.5250    -0.3580 ca         1 804      -0.095500
      6 CAF          1.4320    -0.7250     0.3960 ca         1 804      -0.095500
      7 CAG          0.3590     1.6900    -0.4100 ca         1 804      -0.100500
      8 CAH          0.0580    -0.5580     0.3540 ca         1 804      -0.100500
      9 CAI         -6.4350     1.7290    -0.1800 ca         1 804      -0.129000
     10 CAJ         -5.2360     2.4100    -0.1570 ca         1 804      -0.068000
     11 CAK         -5.3130    -0.4190    -0.1820 ca         1 804      -0.075000
     12 CAL         -2.6610     2.0270    -0.1110 cc         1 804      -0.223200
     13 CAM         10.6530    -0.7850    -0.4190 c6         1 804      -0.130400
     14 CAN         -9.9880    -1.8660     0.4770 c6         1 804      -0.130400
     15 CAO          9.8990    -1.7940     0.4360 c6         1 804       0.118800
     16 CAP         -9.0820    -2.3000    -0.6660 c6         1 804       0.120800
     17 CAQ         10.2330     0.6160    -0.0110 c6         1 804       0.220800
     18 CAR        -10.1480    -0.3570     0.4270 c6         1 804       0.219800
     19 NAS          8.4660    -1.5900     0.4550 n2         1 804      -0.669900
     20 NAT         -7.8320    -1.5730    -0.7320 n2         1 804      -0.677900
     21 NAU          8.7860     0.6990     0.0210 nu         1 804      -0.944400
     22 NAV         -8.8440     0.2670     0.3220 nu         1 804      -0.943400
     23 NAW         -2.8280    -0.1990    -0.1170 na         1 804      -0.213700
     24 CAX          8.0260    -0.4120     0.2140 ce         1 804       0.675800
     25 CAY         -7.7860    -0.4040    -0.2110 ce         1 804       0.680800
     26 CAZ          6.5550    -0.2030     0.1710 ca         1 804      -0.132900
     27 CBA         -6.4870     0.3190    -0.1890 ca         1 804      -0.124900
     28 CBB          3.7580     0.1340     0.0910 cp         1 804      -0.024000
     29 CBC          2.2960     0.3120     0.0430 cp         1 804      -0.030000
     30 CBD         -0.5050     0.6520    -0.0530 ca         1 804      -0.028800
     31 CBE         -1.9480     0.8520    -0.1010 cd         1 804      -0.002300
     32 CBF         -4.0400     1.6820    -0.1410 ca         1 804      -0.089800
     33 CBG         -4.1080     0.2710    -0.1500 ca         1 804      -0.054200
     34 HAA          6.1520    -2.2160    -0.4440 ha         1 804       0.126500
     35 HAB          6.5860     1.8560     0.8130 ha         1 804       0.126500
     36 HAC          3.7260    -1.9250    -0.5380 ha         1 804       0.116500
     37 HAD          4.1780     2.1420     0.7420 ha         1 804       0.116500
     38 HAE          2.3670     2.3450    -0.6620 ha         1 804       0.118000
     39 HAF          1.8310    -1.6710     0.7390 ha         1 804       0.118000
     40 HAG         -0.0420     2.6340    -0.7560 ha         1 804       0.114000
     41 HAH         -0.5670    -1.3840     0.6700 ha         1 804       0.114000
     42 HAI         -7.3530     2.3020    -0.2170 ha         1 804       0.112000
     43 HAJ         -5.2240     3.4920    -0.1610 ha         1 804       0.116000
     44 HAK         -5.3480    -1.5010    -0.1920 ha         1 804       0.137000
     45 HAL         -2.2460     3.0220    -0.0720 ha         1 804       0.205000
     46 HAM         11.7310    -0.9070    -0.3000 hc         1 804       0.052700
     47 HAMA        10.4210    -0.9440    -1.4760 hc         1 804       0.052700
     48 HANA        -9.5460    -2.1560     1.4340 hc         1 804       0.051700
     49 HAO         10.0970    -2.8090     0.0820 h1         1 804       0.054700
     50 HAOA        10.2840    -1.7610     1.4620 h1         1 804       0.054700
     51 HAP         -8.8550    -3.3660    -0.5800 h1         1 804       0.052700
     52 HAPA        -9.6210    -2.1910    -1.6160 h1         1 804       0.052700
     53 HAQ         10.6500     0.8600     0.9720 h1         1 804       0.042700
     54 HAQA        10.6070     1.3630    -0.7100 h1         1 804       0.042700
     55 HAR        -10.7750    -0.0760    -0.4250 h1         1 804       0.042200
     56 HARA       -10.6390     0.0210     1.3240 h1         1 804       0.042200
     57 HNAU         8.3580     1.4890    -0.4300 hn         1 804       0.483000
     58 HNAV        -8.6500     1.0320     0.9440 hn         1 804       0.484000
     59 HNAW        -2.5760    -1.1710    -0.1880 hn         1 804       0.352000
     60 HAN        -10.9610    -2.3530     0.4050 hc         1 804       0.051700
@<TRIPOS>BOND
     1     1     3 ar  
     2     1    26 ar  
     3     1    34 1   
     4     2     4 ar  
     5     2    26 ar  
     6     2    35 1   
     7     3    28 ar  
     8     3    36 1   
     9     4    28 ar  
    10     4    37 1   
    11     5     7 ar  
    12     5    29 ar  
    13     5    38 1   
    14     6     8 ar  
    15     6    29 ar  
    16     6    39 1   
    17     7    30 ar  
    18     7    40 1   
    19     8    30 ar  
    20     8    41 1   
    21     9    10 ar  
    22     9    27 ar  
    23     9    42 1   
    24    10    32 ar  
    25    10    43 1   
    26    11    27 ar  
    27    11    33 ar  
    28    11    44 1   
    29    12    31 2   
    30    12    32 1   
    31    12    45 1   
    32    13    15 1   
    33    13    17 1   
    34    13    46 1   
    35    13    47 1   
    36    14    16 1   
    37    14    18 1   
    38    14    48 1   
    39    14    60 1   
    40    15    19 1   
    41    15    49 1   
    42    15    50 1   
    43    16    20 1   
    44    16    51 1   
    45    16    52 1   
    46    17    21 1   
    47    17    53 1   
    48    17    54 1   
    49    18    22 1   
    50    18    55 1   
    51    18    56 1   
    52    19    24 2   
    53    20    25 2   
    54    21    24 1   
    55    21    57 1   
    56    22    25 1   
    57    22    58 1   
    58    23    31 1   
    59    23    33 1   
    60    23    59 1   
    61    24    26 1   
    62    25    27 1   
    63    28    29 1   
    64    30    31 1   
    65    32    33 ar  
@<TRIPOS>SUBSTRUCTURE
     1 804         1 TEMP              0 ****  ****    0 ROOT
