@<TRIPOS>MOLECULE
805
   39    41     1     0     0
SMALL
No Charge or Current Charge


@<TRIPOS>ATOM
      1 C01        158.5650   168.6330   140.4480 c3         1 805      -0.060800
      2 C02        157.5300   167.5230   140.5450 ca         1 805      -0.008300
      3 C03        157.9250   166.2100   140.8560 ca         1 805      -0.131000
      4 C04        156.9730   165.1800   140.9430 ca         1 805      -0.001000
      5 C05        155.6080   165.4610   140.7200 ca         1 805      -0.323500
      6 C06        155.2100   166.7760   140.4010 ca         1 805      -0.001000
      7 C07        156.1700   167.7990   140.3160 ca         1 805      -0.131000
      8 C12        153.4190   164.0650   138.1690 cc         1 805      -0.163000
      9 C13        153.6840   163.3490   137.0340 cd         1 805      -0.133000
     10 C14        154.7030   162.4010   137.3040 cd         1 805      -0.210600
     11 C15        155.0720   162.5320   138.6200 cc         1 805      -0.077000
     12 C16        155.3240   161.4050   136.3900 c          1 805       0.641700
     13 C19        155.2490   160.5610   134.0160 c3         1 805       0.087700
     14 C20        154.5270   160.8000   132.7080 cc         1 805       0.431300
     15 C22        153.2590   161.5060   131.1470 cd         1 805       0.235900
     16 C23        154.0440   160.5010   130.6440 cc         1 805       0.100900
     17 N11        154.2790   163.5570   139.1520 na         1 805      -0.111200
     18 N18        154.8140   161.4370   135.1190 ns         1 805      -0.503900
     19 N21        153.5730   161.6970   132.4800 nd         1 805      -0.694000
     20 O09        154.9510   163.0360   141.6050 o          1 805      -0.524500
     21 O10        153.0750   164.7510   141.1160 o          1 805      -0.524500
     22 O17        156.2050   160.6250   136.7230 o          1 805      -0.622100
     23 O24        154.8600   160.0380   131.6280 os         1 805      -0.266000
     24 S08        154.3780   164.1370   140.8140 sy         1 805       1.204700
     25 H1         158.9550   168.7140   139.4260 hc         1 805       0.052700
     26 H2         158.1370   169.6050   140.7210 hc         1 805       0.052700
     27 H3         159.4140   168.4490   141.1170 hc         1 805       0.052700
     28 H4         158.9750   165.9830   141.0290 ha         1 805       0.122000
     29 H5         157.3040   164.1690   141.1820 ha         1 805       0.137000
     30 H6         154.1630   167.0120   140.2150 ha         1 805       0.137000
     31 H7         155.8530   168.8100   140.0680 ha         1 805       0.122000
     32 H8         152.7140   164.8680   138.3550 h4         1 805       0.167000
     33 H9         153.1810   163.4990   136.0830 ha         1 805       0.138000
     34 H10        155.8130   161.9960   139.2030 h4         1 805       0.184000
     35 H11        155.0930   159.5160   134.3130 h1         1 805       0.076700
     36 H12        152.5020   162.0890   130.6360 h4         1 805       0.051100
     37 H13        154.1120   160.0510   129.6630 h4         1 805       0.067100
     38 H14        156.3240   160.7070   133.8520 h1         1 805       0.076700
     39 H15        154.0860   162.1160   134.9320 hn         1 805       0.344500
@<TRIPOS>BOND
     1     1     2 1   
     2     1    25 1   
     3     1    26 1   
     4     1    27 1   
     5     2     3 ar  
     6     2     7 ar  
     7     3     4 ar  
     8     3    28 1   
     9     4     5 ar  
    10     4    29 1   
    11     5     6 ar  
    12     5    24 1   
    13     6     7 ar  
    14     6    30 1   
    15     7    31 1   
    16     8     9 2   
    17     8    17 1   
    18     8    32 1   
    19     9    10 1   
    20     9    33 1   
    21    10    11 2   
    22    10    12 1   
    23    11    17 1   
    24    11    34 1   
    25    12    18 1   
    26    12    22 2   
    27    13    14 1   
    28    13    18 1   
    29    13    35 1   
    30    13    38 1   
    31    14    19 2   
    32    14    23 1   
    33    15    16 2   
    34    15    19 1   
    35    15    36 1   
    36    16    23 1   
    37    16    37 1   
    38    17    24 1   
    39    18    39 1   
    40    20    24 2   
    41    21    24 2   
@<TRIPOS>SUBSTRUCTURE
     1 805         1 TEMP              0 ****  ****    0 ROOT
