@<TRIPOS>MOLECULE
805
   39    41     1     0     0
SMALL
abcg2


@<TRIPOS>ATOM
      1 C01        158.5140   168.4690   140.1990 c3         1 805      -0.060800
      2 C02        157.4800   167.3950   140.3850 ca         1 805      -0.008300
      3 C03        157.8640   166.0630   140.5690 ca         1 805      -0.131000
      4 C04        156.9220   165.0590   140.7150 ca         1 805      -0.001000
      5 C05        155.5690   165.3940   140.6800 ca         1 805      -0.323500
      6 C06        155.1560   166.7100   140.5010 ca         1 805      -0.001000
      7 C07        156.1170   167.7010   140.3590 ca         1 805      -0.131000
      8 C12        153.4060   164.1510   138.2620 cc         1 805      -0.163000
      9 C13        153.6660   163.5160   137.0860 cd         1 805      -0.133000
     10 C14        154.6530   162.5020   137.3430 cd         1 805      -0.210600
     11 C15        154.9630   162.5580   138.6790 cc         1 805      -0.077000
     12 C16        155.2660   161.5280   136.4180 c          1 805       0.641700
     13 C19        155.3650   160.6820   134.1320 c3         1 805       0.087700
     14 C20        154.6370   160.8980   132.8530 cc         1 805       0.431300
     15 C22        153.3490   161.5020   131.2640 cd         1 805       0.235900
     16 C23        154.1880   160.5750   130.7620 cc         1 805       0.100900
     17 N11        154.1890   163.5480   139.2430 na         1 805      -0.111200
     18 N18        154.8450   161.5790   135.1380 ns         1 805      -0.503900
     19 N21        153.6510   161.6980   132.6130 nd         1 805      -0.694000
     20 O09        154.9110   163.0170   141.5660 o          1 805      -0.524500
     21 O10        153.0950   164.6900   141.1730 o          1 805      -0.524500
     22 O17        156.1160   160.7130   136.7910 o          1 805      -0.622100
     23 O24        155.0260   160.1770   131.7780 os         1 805      -0.266000
     24 S08        154.3680   164.1220   140.8260 sy         1 805       1.204700
     25 H1         158.8580   168.4860   139.1610 hc         1 805       0.052700
     26 H2         158.1080   169.4530   140.4320 hc         1 805       0.052700
     27 H3         159.3870   168.2870   140.8280 hc         1 805       0.052700
     28 H4         158.9170   165.8100   140.6020 ha         1 805       0.122000
     29 H5         157.2290   164.0320   140.8590 ha         1 805       0.137000
     30 H6         154.1040   166.9570   140.4820 ha         1 805       0.137000
     31 H7         155.8040   168.7290   140.2290 ha         1 805       0.122000
     32 H8         152.7390   164.9580   138.5090 h4         1 805       0.167000
     33 H9         153.1930   163.7460   136.1450 ha         1 805       0.138000
     34 H10        155.6490   161.9780   139.2680 h4         1 805       0.184000
     35 H11        155.2480   159.6400   134.4470 h1         1 805       0.076700
     36 H12        152.5570   162.0400   130.7710 h4         1 805       0.051100
     37 H13        154.3330   160.1130   129.8020 h4         1 805       0.067100
     38 H14        156.4360   160.8420   133.9760 h1         1 805       0.076700
     39 H15        154.1440   162.2430   134.8470 hn         1 805       0.344500
@<TRIPOS>BOND
     1     1     2 1   
     2     1    25 1   
     3     1    26 1   
     4     1    27 1   
     5     2     3 ar  
     6     2     7 ar  
     7     3     4 ar  
     8     3    28 1   
     9     4     5 ar  
    10     4    29 1   
    11     5     6 ar  
    12     5    24 1   
    13     6     7 ar  
    14     6    30 1   
    15     7    31 1   
    16     8     9 2   
    17     8    17 1   
    18     8    32 1   
    19     9    10 1   
    20     9    33 1   
    21    10    11 2   
    22    10    12 1   
    23    11    17 1   
    24    11    34 1   
    25    12    18 1   
    26    12    22 2   
    27    13    14 1   
    28    13    18 1   
    29    13    35 1   
    30    13    38 1   
    31    14    19 2   
    32    14    23 1   
    33    15    16 2   
    34    15    19 1   
    35    15    36 1   
    36    16    23 1   
    37    16    37 1   
    38    17    24 1   
    39    18    39 1   
    40    20    24 2   
    41    21    24 2   
@<TRIPOS>SUBSTRUCTURE
     1 805         1 TEMP              0 ****  ****    0 ROOT
