@<TRIPOS>MOLECULE
806
   68    73     1     0     0
SMALL
No Charge or Current Charge


@<TRIPOS>ATOM
      1 N1          -4.8410    -1.7120     3.3890 n2         1 806      -0.838100
      2 C1          -4.2700    -0.5810     3.4590 ce         1 806       0.654800
      3 N2          -4.1420     0.0060     4.6660 nv         1 806      -1.078200
      4 C2          -3.5650     0.0560     2.3030 ca         1 806      -0.141900
      5 C3          -3.0460    -0.7380     1.2550 ca         1 806      -0.055000
      6 C4          -2.3880    -0.1450     0.1600 ca         1 806      -0.054000
      7 C5          -1.8170    -0.9480    -0.8450 ca         1 806      -0.084000
      8 C6          -1.1310    -0.3610    -1.9270 ca         1 806      -0.112300
      9 C7          -1.0450     1.0440    -2.0080 ca         1 806      -0.083000
     10 C8          -1.6180     1.8500    -1.0100 ca         1 806      -0.103000
     11 C9          -2.2820     1.2590     0.0800 ca         1 806      -0.027000
     12 C10         -2.8380     2.0590     1.0940 ca         1 806      -0.115000
     13 C11         -3.4730     1.4630     2.1970 ca         1 806      -0.087000
     14 C12         -0.4690    -1.2500    -2.9810 c3         1 806       0.132900
     15 N21          0.8830    -0.8110    -3.3930 na         1 806      -0.103600
     16 C21          1.2320    -0.4990    -4.7200 ca         1 806      -0.001200
     17 C22          2.5140     0.0440    -4.6390 cp         1 806      -0.074000
     18 C23          2.9270     0.0520    -3.2380 cp         1 806      -0.115000
     19 C24          1.9000    -0.4960    -2.4760 ca         1 806       0.032800
     20 C25          4.1040     0.5040    -2.6130 ca         1 806      -0.025000
     21 C26          4.1950     0.4010    -1.2070 ca         1 806      -0.170000
     22 C27          3.1350    -0.1410    -0.4400 ca         1 806       0.162100
     23 C28          1.9690    -0.6230    -1.0850 ca         1 806      -0.218000
     24 C29          3.1740     0.4730    -5.8070 ca         1 806      -0.056000
     25 C30          2.5060     0.3350    -7.0440 ca         1 806      -0.143000
     26 C31          1.2040    -0.2230    -7.1070 ca         1 806      -0.084000
     27 C32          0.5470    -0.6510    -5.9330 ca         1 806      -0.143000
     28 O            3.2900    -0.1670     0.9350 os         1 806      -0.351100
     29 C41          2.1630    -0.3660     1.8180 c6         1 806       0.177300
     30 C42          2.6510    -0.5200     3.2670 c6         1 806      -0.098900
     31 C43          1.4660    -0.7560     4.2310 c6         1 806       0.204800
     32 N41          0.3830     0.2760     4.1220 nh         1 806      -0.776600
     33 C44         -0.0060     0.5890     2.7060 c6         1 806       0.204800
     34 C45          1.1930     0.8290     1.7720 c6         1 806      -0.098900
     35 C46         -0.5550     0.3950     5.1430 c2         1 806       0.627200
     36 N42         -1.4360     1.3070     5.0390 n2         1 806      -0.870100
     37 C47         -0.4470    -0.4450     6.3960 c3         1 806      -0.143400
     38 HN1         -5.4140    -1.8340     4.2310 hn         1 806       0.369400
     39 HN21        -4.2840    -0.6050     5.4590 hn         1 806       0.472000
     40 HN22        -3.3230     0.6110     4.7520 hn         1 806       0.472000
     41 H3          -3.1270    -1.8220     1.3080 ha         1 806       0.135000
     42 H5          -1.8890    -2.0310    -0.7760 ha         1 806       0.116000
     43 H7          -0.5240     1.5150    -2.8390 ha         1 806       0.125000
     44 H8          -1.5360     2.9320    -1.0800 ha         1 806       0.119000
     45 H10         -2.7710     3.1430     1.0340 ha         1 806       0.119000
     46 H11         -3.9010     2.1000     2.9680 ha         1 806       0.131000
     47 H121        -1.1230    -1.2900    -3.8590 h1         1 806       0.062700
     48 H122        -0.3820    -2.2730    -2.5950 h1         1 806       0.062700
     49 H25          4.9160     0.9320    -3.1960 ha         1 806       0.118000
     50 H26          5.0880     0.7590    -0.7020 ha         1 806       0.127000
     51 H28          1.1410    -1.0630    -0.5400 ha         1 806       0.126000
     52 H29          4.1730     0.9000    -5.7570 ha         1 806       0.116000
     53 H30          2.9970     0.6590    -7.9580 ha         1 806       0.114000
     54 H31          0.7070    -0.3230    -8.0690 ha         1 806       0.111000
     55 H32         -0.4500    -1.0810    -5.9790 ha         1 806       0.115000
     56 H41          1.6430    -1.2920     1.5340 h1         1 806       0.043700
     57 H421         3.2010     0.3790     3.5740 hc         1 806       0.066700
     58 H422         3.3540    -1.3610     3.3380 hc         1 806       0.066700
     59 H431         1.8860    -0.7630     5.2470 h1         1 806       0.044450
     60 H432         1.0430    -1.7550     4.0500 h1         1 806       0.044450
     61 H441        -0.6120    -0.2360     2.3090 h1         1 806       0.044450
     62 H442        -0.6220     1.4970     2.6540 h1         1 806       0.044450
     63 H451         1.7140     1.7490     2.0700 hc         1 806       0.066700
     64 H452         0.8210     0.9980     0.7540 hc         1 806       0.066700
     65 HN42        -1.2300     1.8020     4.1660 hn         1 806       0.380400
     66 H471        -1.3090    -0.2870     7.0540 hc         1 806       0.057367
     67 H472        -0.4140    -1.5140     6.1560 hc         1 806       0.057367
     68 H473         0.4520    -0.1870     6.9660 hc         1 806       0.057367
@<TRIPOS>BOND
     1     1     2 2   
     2     1    38 1   
     3     2     3 1   
     4     2     4 1   
     5     3    39 1   
     6     3    40 1   
     7     4     5 ar  
     8     4    13 ar  
     9     5     6 ar  
    10     5    41 1   
    11     6     7 ar  
    12     6    11 ar  
    13     7     8 ar  
    14     7    42 1   
    15     8     9 ar  
    16     8    14 1   
    17     9    10 ar  
    18     9    43 1   
    19    10    11 ar  
    20    10    44 1   
    21    11    12 ar  
    22    12    13 ar  
    23    12    45 1   
    24    13    46 1   
    25    14    15 1   
    26    14    47 1   
    27    14    48 1   
    28    15    16 1   
    29    15    19 1   
    30    16    17 ar  
    31    16    27 ar  
    32    17    18 1   
    33    17    24 ar  
    34    18    19 ar  
    35    18    20 ar  
    36    19    23 ar  
    37    20    21 ar  
    38    20    49 1   
    39    21    22 ar  
    40    21    50 1   
    41    22    23 ar  
    42    22    28 1   
    43    23    51 1   
    44    24    25 ar  
    45    24    52 1   
    46    25    26 ar  
    47    25    53 1   
    48    26    27 ar  
    49    26    54 1   
    50    27    55 1   
    51    28    29 1   
    52    29    30 1   
    53    29    34 1   
    54    29    56 1   
    55    30    31 1   
    56    30    57 1   
    57    30    58 1   
    58    31    32 1   
    59    31    59 1   
    60    31    60 1   
    61    32    33 1   
    62    32    35 1   
    63    33    34 1   
    64    33    61 1   
    65    33    62 1   
    66    34    63 1   
    67    34    64 1   
    68    35    36 2   
    69    35    37 1   
    70    36    65 1   
    71    37    66 1   
    72    37    67 1   
    73    37    68 1   
@<TRIPOS>SUBSTRUCTURE
     1 806         1 TEMP              0 ****  ****    0 ROOT
