@<TRIPOS>MOLECULE
806
   68    73     1     0     0
SMALL
abcg2


@<TRIPOS>ATOM
      1 N1          -4.2950    -2.0730     3.4970 n2         1 806      -0.838100
      2 C1          -3.8820    -0.8660     3.5880 ce         1 806       0.654800
      3 N2          -3.8620    -0.0980     4.7150 nv         1 806      -1.078200
      4 C2          -3.4150    -0.1830     2.3480 ca         1 806      -0.141900
      5 C3          -2.8270    -0.9210     1.3500 ca         1 806      -0.055000
      6 C4          -2.3450    -0.3070     0.1750 ca         1 806      -0.054000
      7 C5          -1.6890    -1.0490    -0.8360 ca         1 806      -0.084000
      8 C6          -1.1920    -0.4400    -1.9570 ca         1 806      -0.112300
      9 C7          -1.3470     0.9580    -2.1130 ca         1 806      -0.083000
     10 C8          -1.9790     1.7020    -1.1580 ca         1 806      -0.103000
     11 C9          -2.4880     1.0940     0.0150 ca         1 806      -0.027000
     12 C10         -3.1210     1.8320     1.0400 ca         1 806      -0.115000
     13 C11         -3.5640     1.2140     2.1770 ca         1 806      -0.087000
     14 C12         -0.4730    -1.2460    -3.0090 c3         1 806       0.132900
     15 N21          0.8230    -0.7010    -3.3420 na         1 806      -0.103600
     16 C21          1.2490    -0.2880    -4.5880 ca         1 806      -0.001200
     17 C22          2.5920     0.1350    -4.4970 cp         1 806      -0.074000
     18 C23          2.9800    -0.0340    -3.1210 cp         1 806      -0.115000
     19 C24          1.8580    -0.5500    -2.4500 ca         1 806       0.032800
     20 C25          4.1470     0.2080    -2.4010 ca         1 806      -0.025000
     21 C26          4.1700    -0.0350    -1.0400 ca         1 806      -0.170000
     22 C27          3.0350    -0.5400    -0.3850 ca         1 806       0.162100
     23 C28          1.8720    -0.8260    -1.0870 ca         1 806      -0.218000
     24 C29          3.2500     0.6020    -5.6310 ca         1 806      -0.056000
     25 C30          2.5670     0.6420    -6.8350 ca         1 806      -0.143000
     26 C31          1.2360     0.2210    -6.9110 ca         1 806      -0.084000
     27 C32          0.5590    -0.2480    -5.7950 ca         1 806      -0.143000
     28 O            3.1460    -0.7300     0.9530 os         1 806      -0.351100
     29 C41          1.9780    -0.5720     1.7510 c6         1 806       0.177300
     30 C42          2.3210    -0.9260     3.1800 c6         1 806      -0.098900
     31 C43          1.0810    -0.8080     4.0530 c6         1 806       0.204800
     32 N41          0.4500     0.5060     3.9610 nh         1 806      -0.776600
     33 C44          0.2330     0.9920     2.6060 c6         1 806       0.204800
     34 C45          1.4590     0.8540     1.7220 c6         1 806      -0.098900
     35 C46         -0.4540     0.8800     4.9260 c2         1 806       0.627200
     36 N42         -1.3750     1.7680     4.7990 n2         1 806      -0.870100
     37 C47         -0.3540     0.1980     6.2620 c3         1 806      -0.143400
     38 HN1         -4.5440    -2.4440     4.4100 hn         1 806       0.369400
     39 HN21        -4.0450    -0.5720     5.5850 hn         1 806       0.472000
     40 HN22        -3.1560     0.6290     4.7950 hn         1 806       0.472000
     41 H3          -2.7080    -1.9900     1.4740 ha         1 806       0.135000
     42 H5          -1.5660    -2.1180    -0.7000 ha         1 806       0.116000
     43 H7          -0.9550     1.4440    -2.9990 ha         1 806       0.125000
     44 H8          -2.0920     2.7720    -1.2880 ha         1 806       0.119000
     45 H10         -3.2510     2.9000     0.9190 ha         1 806       0.119000
     46 H11         -4.0530     1.8010     2.9430 ha         1 806       0.131000
     47 H121        -1.0670    -1.2790    -3.9230 h1         1 806       0.062700
     48 H122        -0.3640    -2.2800    -2.6740 h1         1 806       0.062700
     49 H25          5.0280     0.6030    -2.8900 ha         1 806       0.118000
     50 H26          5.0600     0.1750    -0.4620 ha         1 806       0.127000
     51 H28          0.9990    -1.2290    -0.5980 ha         1 806       0.126000
     52 H29          4.2810     0.9290    -5.5730 ha         1 806       0.116000
     53 H30          3.0640     1.0010    -7.7260 ha         1 806       0.114000
     54 H31          0.7180     0.2580    -7.8610 ha         1 806       0.111000
     55 H32         -0.4720    -0.5670    -5.8790 ha         1 806       0.115000
     56 H41          1.1880    -1.2560     1.4130 h1         1 806       0.043700
     57 H421         3.1060    -0.2610     3.5510 hc         1 806       0.066700
     58 H422         2.6900    -1.9520     3.2530 hc         1 806       0.066700
     59 H431         1.3730    -1.0020     5.0820 h1         1 806       0.044450
     60 H432         0.3660    -1.5940     3.7760 h1         1 806       0.044450
     61 H441        -0.6100     0.4610     2.1470 h1         1 806       0.044450
     62 H442        -0.0290     2.0490     2.6340 h1         1 806       0.044450
     63 H451         2.2500     1.5300     2.0590 hc         1 806       0.066700
     64 H452         1.1710     1.1570     0.7130 hc         1 806       0.066700
     65 HN42        -1.4190     2.1670     3.8680 hn         1 806       0.380400
     66 H471        -1.0340     0.6840     6.9560 hc         1 806       0.057367
     67 H472        -0.6330    -0.8550     6.1950 hc         1 806       0.057367
     68 H473         0.6550     0.2450     6.6720 hc         1 806       0.057367
@<TRIPOS>BOND
     1     1     2 2   
     2     1    38 1   
     3     2     3 1   
     4     2     4 1   
     5     3    39 1   
     6     3    40 1   
     7     4     5 ar  
     8     4    13 ar  
     9     5     6 ar  
    10     5    41 1   
    11     6     7 ar  
    12     6    11 ar  
    13     7     8 ar  
    14     7    42 1   
    15     8     9 ar  
    16     8    14 1   
    17     9    10 ar  
    18     9    43 1   
    19    10    11 ar  
    20    10    44 1   
    21    11    12 ar  
    22    12    13 ar  
    23    12    45 1   
    24    13    46 1   
    25    14    15 1   
    26    14    47 1   
    27    14    48 1   
    28    15    16 1   
    29    15    19 1   
    30    16    17 ar  
    31    16    27 ar  
    32    17    18 1   
    33    17    24 ar  
    34    18    19 ar  
    35    18    20 ar  
    36    19    23 ar  
    37    20    21 ar  
    38    20    49 1   
    39    21    22 ar  
    40    21    50 1   
    41    22    23 ar  
    42    22    28 1   
    43    23    51 1   
    44    24    25 ar  
    45    24    52 1   
    46    25    26 ar  
    47    25    53 1   
    48    26    27 ar  
    49    26    54 1   
    50    27    55 1   
    51    28    29 1   
    52    29    30 1   
    53    29    34 1   
    54    29    56 1   
    55    30    31 1   
    56    30    57 1   
    57    30    58 1   
    58    31    32 1   
    59    31    59 1   
    60    31    60 1   
    61    32    33 1   
    62    32    35 1   
    63    33    34 1   
    64    33    61 1   
    65    33    62 1   
    66    34    63 1   
    67    34    64 1   
    68    35    36 2   
    69    35    37 1   
    70    36    65 1   
    71    37    66 1   
    72    37    67 1   
    73    37    68 1   
@<TRIPOS>SUBSTRUCTURE
     1 806         1 TEMP              0 ****  ****    0 ROOT
