@<TRIPOS>MOLECULE
807
   45    47     1     0     0
SMALL
bcc


@<TRIPOS>ATOM
      1 N1          -0.7620   -22.5570   -11.5600 nb         1 807      -0.819000
      2 C8          -1.6990   -20.4260    -7.8360 cc         1 807       0.401700
      3 C5          -1.2060   -21.7560    -9.3910 ca         1 807      -0.236200
      4 C6          -0.8550   -22.8170   -10.2480 ca         1 807       0.794200
      5 N3          -1.3420   -20.2600   -11.3000 nb         1 807      -0.733000
      6 C4          -1.4270   -20.5280    -9.9940 ca         1 807       0.463800
      7 C2          -1.0080   -21.3310   -11.9750 ca         1 807       0.811000
      8 N7          -1.7480   -19.6810    -8.9810 na         1 807      -0.242000
      9 N9          -1.3840   -21.6720    -8.0370 nd         1 807      -0.547100
     10 N10         -0.6210   -24.0530    -9.8160 nv         1 807      -0.945500
     11 C11         -1.9950   -18.2540    -9.0850 c3         1 807       0.101600
     12 CL1         -0.8580   -21.1070   -13.6920 cl         1 807      -0.141000
     13 C13         -0.7210   -17.4890    -9.3380 ca         1 807      -0.050300
     14 C14          0.1990   -17.3470    -8.3050 ca         1 807      -0.229000
     15 C15          1.3990   -16.6920    -8.5610 ca         1 807       0.171100
     16 C16          1.6580   -16.1760    -9.8260 ca         1 807      -0.189000
     17 C17          0.7230   -16.3050   -10.8480 ca         1 807       0.187100
     18 C18         -0.4790   -16.9720   -10.6010 ca         1 807      -0.210000
     19 O19          1.0660   -15.7570   -12.0260 os         1 807      -0.328900
     20 C20          0.2860   -16.0000   -13.2020 c3         1 807       0.157100
     21 C21          0.7260   -14.9660   -14.2190 c3         1 807      -0.110100
     22 O22          2.3990   -16.5200    -7.6650 os         1 807      -0.304900
     23 C23          2.3530   -17.1200    -6.3930 c3         1 807       0.083400
     24 C24          1.8650   -16.1620    -5.3340 c3         1 807       0.392900
     25 F25          0.6130   -15.7080    -5.6170 f          1 807      -0.236300
     26 F26          2.6680   -15.0640    -5.2900 f          1 807      -0.236300
     27 C27          0.4910   -17.4180   -13.7100 c3         1 807      -0.110100
     28 H1          -1.9170   -19.9810    -6.8750 h5         1 807       0.065800
     29 H2          -0.3190   -24.7670   -10.4570 hn         1 807       0.455300
     30 H3          -0.6300   -24.2670    -8.8340 hn         1 807       0.455300
     31 H4          -2.4620   -17.9390    -8.1520 h1         1 807       0.071700
     32 H5          -2.7170   -18.0840    -9.8840 h1         1 807       0.071700
     33 H6          -0.0450   -17.7460    -7.3290 ha         1 807       0.132000
     34 H7           2.5970   -15.6720   -10.0190 ha         1 807       0.162000
     35 H8          -1.2250   -17.1080   -11.3710 ha         1 807       0.150000
     36 H9          -0.7740   -15.8360   -12.9800 h1         1 807       0.041700
     37 H10          0.5700   -13.9530   -13.8490 hc         1 807       0.049533
     38 H11          1.7800   -15.0860   -14.4730 hc         1 807       0.049533
     39 H12          0.1450   -15.0810   -15.1340 hc         1 807       0.049533
     40 H13          1.7510   -18.0310    -6.3690 h1         1 807       0.072700
     41 H14          3.3740   -17.4110    -6.1370 h1         1 807       0.072700
     42 H15          1.8550   -16.6300    -4.3480 h2         1 807       0.058700
     43 H16          0.1880   -18.1720   -12.9840 hc         1 807       0.049533
     44 H17         -0.1040   -17.5760   -14.6100 hc         1 807       0.049533
     45 H18          1.5390   -17.5880   -13.9640 hc         1 807       0.049533
@<TRIPOS>BOND
     1     1     4 ar  
     2     1     7 ar  
     3     2     8 1   
     4     2     9 2   
     5     2    28 1   
     6     3     4 ar  
     7     3     6 ar  
     8     3     9 1   
     9     4    10 1   
    10     5     6 ar  
    11     5     7 ar  
    12     6     8 1   
    13     7    12 1   
    14     8    11 1   
    15    10    29 1   
    16    10    30 1   
    17    11    13 1   
    18    11    31 1   
    19    11    32 1   
    20    13    14 ar  
    21    13    18 ar  
    22    14    15 ar  
    23    14    33 1   
    24    15    16 ar  
    25    15    22 1   
    26    16    17 ar  
    27    16    34 1   
    28    17    18 ar  
    29    17    19 1   
    30    18    35 1   
    31    19    20 1   
    32    20    21 1   
    33    20    27 1   
    34    20    36 1   
    35    21    37 1   
    36    21    38 1   
    37    21    39 1   
    38    22    23 1   
    39    23    24 1   
    40    23    40 1   
    41    23    41 1   
    42    24    25 1   
    43    24    26 1   
    44    24    42 1   
    45    27    43 1   
    46    27    44 1   
    47    27    45 1   
@<TRIPOS>SUBSTRUCTURE
     1 807         1 TEMP              0 ****  ****    0 ROOT
