@<TRIPOS>MOLECULE
807
   45    47     1     0     0
SMALL
No Charge or Current Charge


@<TRIPOS>ATOM
      1 N1          -1.5380   -22.2870   -12.1890 nb         1 807      -0.293000
      2 C8          -1.1970   -20.8430    -7.9230 cc         1 807       0.401700
      3 C5          -1.2970   -21.8130    -9.8500 ca         1 807      -0.105600
      4 C6          -1.2660   -22.7030   -10.9430 ca         1 807       0.465900
      5 N3          -1.9120   -20.0510   -11.3330 nb         1 807      -0.207000
      6 C4          -1.6250   -20.5030   -10.0970 ca         1 807       0.135500
      7 C2          -1.8500   -20.9760   -12.3190 ca         1 807       0.285000
      8 N7          -1.5650   -19.8940    -8.8770 na         1 807      -0.271300
      9 N9          -1.0270   -22.0520    -8.4950 nd         1 807      -0.547100
     10 N10         -0.9490   -24.0180   -10.8050 nv         1 807      -1.055900
     11 C11         -1.7730   -18.4500    -8.6900 c3         1 807       0.130900
     12 Cl1         -2.2010   -20.4100   -13.9440 cl         1 807      -0.141000
     13 C13         -0.5280   -17.6370    -9.0220 ca         1 807      -0.050300
     14 C14          0.4380   -17.3780    -8.0320 ca         1 807      -0.211000
     15 C15          1.5960   -16.6360    -8.3450 ca         1 807       0.171100
     16 C16          1.7940   -16.1850    -9.6580 ca         1 807      -0.171000
     17 C17          0.8470   -16.4480   -10.6560 ca         1 807       0.187100
     18 C18         -0.3250   -17.1620   -10.3310 ca         1 807      -0.192000
     19 O19          1.1090   -15.9790   -11.9300 os         1 807      -0.352100
     20 C20          0.3690   -16.3910   -13.0960 c3         1 807       0.180300
     21 C21          0.7560   -15.4230   -14.2280 c3         1 807      -0.110100
     22 O22          2.5830   -16.3550    -7.4190 os         1 807      -0.328100
     23 C23          2.4130   -16.4980    -5.9880 c3         1 807       0.106600
     24 C24          1.6100   -15.3040    -5.4070 c3         1 807       0.150300
     25 F25          0.3370   -15.2930    -5.8660 f          1 807      -0.115000
     26 F26          2.1800   -14.1300    -5.7680 f          1 807      -0.115000
     27 C27          0.7420   -17.8540   -13.4280 c3         1 807      -0.110100
     28 H1          -1.0670   -20.5990    -6.8750 h5         1 807       0.065800
     29 H2          -0.6510   -24.5260   -11.6330 hn         1 807       0.510500
     30 H3          -0.5280   -24.3000    -9.9220 hn         1 807       0.510500
     31 H4          -2.0640   -18.2650    -7.6480 h1         1 807       0.071700
     32 H5          -2.6080   -18.1240    -9.3230 h1         1 807       0.071700
     33 H6           0.2730   -17.7630    -7.0310 ha         1 807       0.114000
     34 H7           2.6920   -15.6290    -9.9050 ha         1 807       0.144000
     35 H8          -1.0810   -17.3640   -11.0810 ha         1 807       0.132000
     36 H9          -0.7130   -16.3060   -12.9320 h1         1 807       0.041700
     37 H10          0.4880   -14.3940   -13.9600 hc         1 807       0.049533
     38 H11          1.8340   -15.4610   -14.4250 hc         1 807       0.049533
     39 H12          0.2270   -15.6820   -15.1520 hc         1 807       0.049533
     40 H13          1.9380   -17.4500    -5.7230 h1         1 807       0.072700
     41 H14          3.3980   -16.4960    -5.5060 h1         1 807       0.072700
     42 H15          1.5880   -15.3670    -4.3140 h2         1 807       0.058700
     43 H16          0.4390   -18.5360   -12.6270 hc         1 807       0.049533
     44 H17          0.2410   -18.1750   -14.3480 hc         1 807       0.049533
     45 H18          1.8240   -17.9550   -13.5740 hc         1 807       0.049533
@<TRIPOS>BOND
     1     1     4 ar  
     2     1     7 ar  
     3     2     8 1   
     4     2     9 2   
     5     2    28 1   
     6     3     4 ar  
     7     3     6 ar  
     8     3     9 1   
     9     4    10 1   
    10     5     6 ar  
    11     5     7 ar  
    12     6     8 1   
    13     7    12 1   
    14     8    11 1   
    15    10    29 1   
    16    10    30 1   
    17    11    13 1   
    18    11    31 1   
    19    11    32 1   
    20    13    14 ar  
    21    13    18 ar  
    22    14    15 ar  
    23    14    33 1   
    24    15    16 ar  
    25    15    22 1   
    26    16    17 ar  
    27    16    34 1   
    28    17    18 ar  
    29    17    19 1   
    30    18    35 1   
    31    19    20 1   
    32    20    21 1   
    33    20    27 1   
    34    20    36 1   
    35    21    37 1   
    36    21    38 1   
    37    21    39 1   
    38    22    23 1   
    39    23    24 1   
    40    23    40 1   
    41    23    41 1   
    42    24    25 1   
    43    24    26 1   
    44    24    42 1   
    45    27    43 1   
    46    27    44 1   
    47    27    45 1   
@<TRIPOS>SUBSTRUCTURE
     1 807         1 TEMP              0 ****  ****    0 ROOT
