@<TRIPOS>MOLECULE
809
   40    43     1     0     0
SMALL
No Charge or Current Charge


@<TRIPOS>ATOM
      1 O1          -2.5800     2.6430     0.1250 o          1 809      -0.488000
      2 C5          -1.4850     2.1350    -0.0410 c          1 809       0.586600
      3 N1          -0.3230     2.8060    -0.2940 ns         1 809      -0.492500
      4 C6           0.8020     2.0500    -0.4320 c          1 809       0.590600
      5 O2           1.9260     2.4520    -0.6800 o          1 809      -0.484000
      6 C3           0.3040     0.6600    -0.2280 ca         1 809      -0.151600
      7 C4          -1.0730     0.6920    -0.0090 ca         1 809      -0.091600
      8 C13         -1.7530    -0.5250     0.1840 ca         1 809      -0.034800
      9 C15         -3.1400    -0.8670     0.4230 cc         1 809      -0.122400
     10 C17         -4.3420     0.0390     0.4830 c3         1 809      -0.009200
     11 C19         -4.8150     0.5000    -0.9120 c3         1 809       0.169600
     12 O3          -5.9830     1.3220    -0.7920 oh         1 809      -0.660000
     13 C16         -3.1750    -2.2530     0.5480 cd         1 809      -0.147100
     14 N2          -1.8770    -2.7770     0.3860 na         1 809      -0.082700
     15 C18         -1.4440    -4.1810     0.4270 c3         1 809       0.061900
     16 C14         -1.0350    -1.7020     0.1610 ca         1 809      -0.043200
     17 C1           0.3630    -1.7370    -0.0580 ca         1 809      -0.103000
     18 C2           1.0800    -0.5260    -0.2570 cp         1 809       0.031000
     19 C7           2.5520    -0.5390    -0.4750 cp         1 809      -0.035000
     20 C12          3.0820    -1.0460    -1.6860 ca         1 809      -0.087000
     21 C8           3.4560    -0.0740     0.5160 ca         1 809       0.152000
     22 Cl1          2.8760     0.5260     2.0700 cl         1 809      -0.196000
     23 C9           4.8430    -0.1040     0.2870 ca         1 809      -0.103000
     24 C10          5.3500    -0.6000    -0.9260 ca         1 809      -0.093000
     25 C11          4.4690    -1.0730    -1.9110 ca         1 809      -0.112000
     26 HN1         -0.2990     3.8100    -0.3770 hn         1 809       0.346500
     27 H17         -5.1690    -0.4920     0.9700 hc         1 809       0.065700
     28 H17A        -4.1330     0.9060     1.1180 hc         1 809       0.065700
     29 H19         -4.0080     1.0510    -1.4110 h1         1 809       0.018200
     30 H19A        -5.0380    -0.3850    -1.5220 h1         1 809       0.018200
     31 HO3         -6.2240     1.6070    -1.7010 ho         1 809       0.441000
     32 H16         -4.0290    -2.9010     0.7240 h4         1 809       0.217000
     33 H18         -0.9930    -4.4550    -0.5340 h1         1 809       0.053700
     34 H18A        -0.7060    -4.3150     1.2280 h1         1 809       0.053700
     35 H18B        -2.3070    -4.8300     0.6190 h1         1 809       0.053700
     36 H1           0.8980    -2.6830    -0.0660 ha         1 809       0.125000
     37 H12          2.4070    -1.4150    -2.4540 ha         1 809       0.117000
     38 H9           5.5240     0.2550     1.0550 ha         1 809       0.131000
     39 H10          6.4240    -0.6210    -1.0990 ha         1 809       0.118000
     40 H11          4.8600    -1.4620    -2.8490 ha         1 809       0.118000
@<TRIPOS>BOND
     1     1     2 2   
     2     2     3 1   
     3     2     7 1   
     4     3     4 1   
     5     3    26 1   
     6     4     5 2   
     7     4     6 1   
     8     6     7 ar  
     9     6    18 ar  
    10     7     8 ar  
    11     8     9 1   
    12     8    16 ar  
    13     9    10 1   
    14     9    13 2   
    15    10    11 1   
    16    10    27 1   
    17    10    28 1   
    18    11    12 1   
    19    11    29 1   
    20    11    30 1   
    21    12    31 1   
    22    13    14 1   
    23    13    32 1   
    24    14    15 1   
    25    14    16 1   
    26    15    33 1   
    27    15    34 1   
    28    15    35 1   
    29    16    17 ar  
    30    17    18 ar  
    31    17    36 1   
    32    18    19 1   
    33    19    20 ar  
    34    19    21 ar  
    35    20    25 ar  
    36    20    37 1   
    37    21    22 1   
    38    21    23 ar  
    39    23    24 ar  
    40    23    38 1   
    41    24    25 ar  
    42    24    39 1   
    43    25    40 1   
@<TRIPOS>SUBSTRUCTURE
     1 809         1 TEMP              0 ****  ****    0 ROOT
