@<TRIPOS>MOLECULE
809
   40    43     1     0     0
SMALL
abcg2


@<TRIPOS>ATOM
      1 O1          -2.5450     2.6270     0.0860 o          1 809      -0.488000
      2 C5          -1.4450     2.1530    -0.0610 c          1 809       0.586600
      3 N1          -0.2960     2.8770    -0.3000 ns         1 809      -0.492500
      4 C6           0.8250     2.0800    -0.4300 c          1 809       0.590600
      5 O2           1.9370     2.4770    -0.6710 o          1 809      -0.484000
      6 C3           0.3490     0.6910    -0.2310 ca         1 809      -0.151600
      7 C4          -1.0220     0.7290    -0.0300 ca         1 809      -0.091600
      8 C13         -1.7500    -0.4470     0.1520 ca         1 809      -0.034800
      9 C15         -3.1070    -0.8300     0.3910 cc         1 809      -0.122400
     10 C17         -4.3370     0.0120     0.5030 c3         1 809      -0.009200
     11 C19         -4.8720     0.4200    -0.8620 c3         1 809       0.169600
     12 O3          -6.0180     1.2220    -0.6720 oh         1 809      -0.660000
     13 C16         -3.0910    -2.1950     0.4720 cd         1 809      -0.147100
     14 N2          -1.8310    -2.6910     0.3020 na         1 809      -0.082700
     15 C18         -1.4530    -4.0840     0.3390 c3         1 809       0.061900
     16 C14         -0.9840    -1.6490     0.1030 ca         1 809      -0.043200
     17 C1           0.3930    -1.6850    -0.0990 ca         1 809      -0.103000
     18 C2           1.0870    -0.4950    -0.2620 cp         1 809       0.031000
     19 C7           2.5520    -0.5280    -0.4640 cp         1 809      -0.035000
     20 C12          3.0790    -1.0990    -1.6200 ca         1 809      -0.087000
     21 C8           3.4470    -0.0500     0.4900 ca         1 809       0.152000
     22 CL1          2.8490     0.6270     1.9690 cl         1 809      -0.196000
     23 C9           4.8180    -0.1220     0.3030 ca         1 809      -0.103000
     24 C10          5.3180    -0.6850    -0.8620 ca         1 809      -0.093000
     25 C11          4.4490    -1.1770    -1.8240 ca         1 809      -0.112000
     26 HN1         -0.2810     3.8830    -0.3860 hn         1 809       0.346500
     27 H17         -5.1070    -0.5560     1.0310 hc         1 809       0.065700
     28 H17A        -4.1350     0.9040     1.0960 hc         1 809       0.065700
     29 H19         -4.0920     0.9560    -1.4160 h1         1 809       0.018200
     30 H19A        -5.1070    -0.4870    -1.4350 h1         1 809       0.018200
     31 HO3         -6.3790     1.4400    -1.5350 ho         1 809       0.441000
     32 H16         -3.9190    -2.8660     0.6460 h4         1 809       0.217000
     33 H18         -1.0340    -4.3980    -0.6160 h1         1 809       0.053700
     34 H18A        -0.7200    -4.2660     1.1250 h1         1 809       0.053700
     35 H18B        -2.3350    -4.6840     0.5440 h1         1 809       0.053700
     36 H1           0.9280    -2.6260    -0.1150 ha         1 809       0.125000
     37 H12          2.4000    -1.4790    -2.3720 ha         1 809       0.117000
     38 H9           5.4900     0.2540     1.0630 ha         1 809       0.131000
     39 H10          6.3890    -0.7410    -1.0100 ha         1 809       0.118000
     40 H11          4.8330    -1.6220    -2.7320 ha         1 809       0.118000
@<TRIPOS>BOND
     1     1     2 2   
     2     2     3 1   
     3     2     7 1   
     4     3     4 1   
     5     3    26 1   
     6     4     5 2   
     7     4     6 1   
     8     6     7 ar  
     9     6    18 ar  
    10     7     8 ar  
    11     8     9 1   
    12     8    16 ar  
    13     9    10 1   
    14     9    13 2   
    15    10    11 1   
    16    10    27 1   
    17    10    28 1   
    18    11    12 1   
    19    11    29 1   
    20    11    30 1   
    21    12    31 1   
    22    13    14 1   
    23    13    32 1   
    24    14    15 1   
    25    14    16 1   
    26    15    33 1   
    27    15    34 1   
    28    15    35 1   
    29    16    17 ar  
    30    17    18 ar  
    31    17    36 1   
    32    18    19 1   
    33    19    20 ar  
    34    19    21 ar  
    35    20    25 ar  
    36    20    37 1   
    37    21    22 1   
    38    21    23 ar  
    39    23    24 ar  
    40    23    38 1   
    41    24    25 ar  
    42    24    39 1   
    43    25    40 1   
@<TRIPOS>SUBSTRUCTURE
     1 809         1 TEMP              0 ****  ****    0 ROOT
