@<TRIPOS>MOLECULE
80A
   44    46     1     0     0
SMALL
No Charge or Current Charge


@<TRIPOS>ATOM
      1 C1          -1.1300    -1.1370    -1.7420 ca         1 80A      -0.054500
      2 C2           0.2600    -1.1460    -1.5370 ca         1 80A      -0.177500
      3 C3           0.7900    -1.0370    -0.2420 ca         1 80A       0.160100
      4 C4          -0.0860    -0.9180     0.8580 ca         1 80A      -0.177500
      5 C5          -1.4770    -0.9090     0.6540 ca         1 80A      -0.054500
      6 C6          -2.0100    -1.0170    -0.6480 ca         1 80A      -0.172300
      7 C7          -3.5180    -1.0050    -0.8830 c3         1 80A       0.267900
      8 O8          -4.0480    -2.2870    -0.5380 oh         1 80A      -0.644000
      9 C9          -4.2110     0.1290    -0.1170 ca         1 80A      -0.075300
     10 C14         -4.9230    -0.0710     1.0860 ca         1 80A      -0.154500
     11 C13         -5.5230     1.0260     1.7290 ca         1 80A       0.332900
     12 N12         -5.4530     2.2900     1.2520 nb         1 80A      -0.664000
     13 C11         -4.7680     2.4890     0.1020 ca         1 80A       0.332900
     14 C10         -4.1410     1.4490    -0.6050 ca         1 80A      -0.154500
     15 O15          2.1620    -1.0510    -0.1050 os         1 80A      -0.349100
     16 C16          2.8080    -0.9260     1.1800 c3         1 80A       0.161600
     17 C17          4.3480    -0.9590     0.9850 c3         1 80A       0.171800
     18 N23          4.9700     0.3020     0.4920 n3         1 80A      -0.721600
     19 C19          6.4420     0.2670     0.3810 c5         1 80A       0.160300
     20 C20          6.7290     1.6790    -0.1850 c5         1 80A      -0.080900
     21 C21          5.5020     1.9580    -1.1100 c5         1 80A      -0.080900
     22 C22          4.5510     0.7550    -0.8530 c5         1 80A       0.160300
     23 H1          -1.5210    -1.2240    -2.7540 ha         1 80A       0.115500
     24 H2           0.9320    -1.2390    -2.3860 ha         1 80A       0.124500
     25 H4           0.2910    -0.8320     1.8720 ha         1 80A       0.124500
     26 H5          -2.1380    -0.8140     1.5130 ha         1 80A       0.115500
     27 H7          -3.6970    -0.8230    -1.9530 h1         1 80A       0.084700
     28 HO8         -3.5790    -2.5590     0.2780 ho         1 80A       0.446000
     29 H14         -5.0210    -1.0570     1.5310 ha         1 80A       0.127000
     30 H13         -6.0770     0.8890     2.6570 h4         1 80A       0.018600
     31 H11         -4.7210     3.5140    -0.2630 h4         1 80A       0.018600
     32 H10         -3.6020     1.6740    -1.5210 ha         1 80A       0.127000
     33 H16          2.5240     0.0100     1.6780 h1         1 80A       0.044200
     34 H16A         2.5190    -1.7640     1.8270 h1         1 80A       0.044200
     35 H17          4.7880    -1.2060     1.9610 h1         1 80A       0.042200
     36 H17A         4.5950    -1.7920     0.3120 h1         1 80A       0.042200
     37 H19          6.9360     0.1020     1.3490 h1         1 80A       0.038450
     38 H19A         6.7750    -0.5180    -0.3130 h1         1 80A       0.038450
     39 H20          6.7830     2.4180     0.6230 hc         1 80A       0.046700
     40 H20A         7.6820     1.7180    -0.7240 hc         1 80A       0.046700
     41 H21          5.0220     2.9060    -0.8440 hc         1 80A       0.046700
     42 H21A         5.7840     2.0250    -2.1670 hc         1 80A       0.046700
     43 H22          4.7060    -0.0340    -1.6040 h1         1 80A       0.038450
     44 H22A         3.4970     1.0600    -0.8910 h1         1 80A       0.038450
@<TRIPOS>BOND
     1     1     2 ar  
     2     1     6 ar  
     3     1    23 1   
     4     2     3 ar  
     5     2    24 1   
     6     3     4 ar  
     7     3    15 1   
     8     4     5 ar  
     9     4    25 1   
    10     5     6 ar  
    11     5    26 1   
    12     6     7 1   
    13     7     8 1   
    14     7     9 1   
    15     7    27 1   
    16     8    28 1   
    17     9    10 ar  
    18     9    14 ar  
    19    10    11 ar  
    20    10    29 1   
    21    11    12 ar  
    22    11    30 1   
    23    12    13 ar  
    24    13    14 ar  
    25    13    31 1   
    26    14    32 1   
    27    15    16 1   
    28    16    17 1   
    29    16    33 1   
    30    16    34 1   
    31    17    18 1   
    32    17    35 1   
    33    17    36 1   
    34    18    19 1   
    35    18    22 1   
    36    19    20 1   
    37    19    37 1   
    38    19    38 1   
    39    20    21 1   
    40    20    39 1   
    41    20    40 1   
    42    21    22 1   
    43    21    41 1   
    44    21    42 1   
    45    22    43 1   
    46    22    44 1   
@<TRIPOS>SUBSTRUCTURE
     1 80A         1 TEMP              0 ****  ****    0 ROOT
