@<TRIPOS>MOLECULE
80A
   44    46     1     0     0
SMALL
abcg2


@<TRIPOS>ATOM
      1 C1          -1.1070    -1.0750    -1.7110 ca         1 80A      -0.054500
      2 C2           0.2640    -1.0870    -1.5390 ca         1 80A      -0.177500
      3 C3           0.8130    -0.9930    -0.2590 ca         1 80A       0.160100
      4 C4          -0.0390    -0.8840     0.8400 ca         1 80A      -0.177500
      5 C5          -1.4130    -0.8670     0.6460 ca         1 80A      -0.054500
      6 C6          -1.9700    -0.9600    -0.6240 ca         1 80A      -0.172300
      7 C7          -3.4690    -1.0010    -0.8200 c3         1 80A       0.267900
      8 O8          -4.0010    -2.2750    -0.5520 oh         1 80A      -0.644000
      9 C9          -4.1560     0.1020    -0.0410 ca         1 80A      -0.075300
     10 C14         -5.1260    -0.1470     0.9190 ca         1 80A      -0.154500
     11 C13         -5.7020     0.9260     1.5870 ca         1 80A       0.332900
     12 N12         -5.3900     2.1940     1.3550 nb         1 80A      -0.664000
     13 C11         -4.4680     2.4300     0.4240 ca         1 80A       0.332900
     14 C10         -3.8280     1.4320    -0.2880 ca         1 80A      -0.154500
     15 O15          2.1540    -1.0120    -0.1820 os         1 80A      -0.349100
     16 C16          2.7740    -0.8770     1.0870 c3         1 80A       0.161600
     17 C17          4.2780    -0.8760     0.9190 c3         1 80A       0.171800
     18 N23          4.8300     0.3690     0.4390 n3         1 80A      -0.721600
     19 C19          6.2790     0.4120     0.5400 c5         1 80A       0.160300
     20 C20          6.6410     1.6880    -0.2050 c5         1 80A      -0.080900
     21 C21          5.5810     1.7690    -1.3200 c5         1 80A      -0.080900
     22 C22          4.5410     0.6990    -0.9510 c5         1 80A       0.160300
     23 H1          -1.5120    -1.1510    -2.7140 ha         1 80A       0.115500
     24 H2           0.9230    -1.1670    -2.3950 ha         1 80A       0.124500
     25 H4           0.3470    -0.8070     1.8480 ha         1 80A       0.124500
     26 H5          -2.0520    -0.7650     1.5160 ha         1 80A       0.115500
     27 H7          -3.6750    -0.8140    -1.8790 h1         1 80A       0.084700
     28 HO8         -3.6590    -2.5870     0.2940 ho         1 80A       0.446000
     29 H14         -5.4440    -1.1520     1.1580 ha         1 80A       0.127000
     30 H13         -6.4550     0.7450     2.3460 h4         1 80A       0.018600
     31 H11         -4.2230     3.4700     0.2370 h4         1 80A       0.018600
     32 H10         -3.0800     1.6930    -1.0270 ha         1 80A       0.127000
     33 H16          2.4550     0.0490     1.5770 h1         1 80A       0.044200
     34 H16A         2.4880    -1.7150     1.7330 h1         1 80A       0.044200
     35 H17          4.6940    -1.0630     1.9130 h1         1 80A       0.042200
     36 H17A         4.5760    -1.7360     0.2930 h1         1 80A       0.042200
     37 H19          6.5960     0.4150     1.5850 h1         1 80A       0.038450
     38 H19A         6.7500    -0.4610     0.0550 h1         1 80A       0.038450
     39 H20          6.5600     2.5460     0.4640 hc         1 80A       0.046700
     40 H20A         7.6610     1.6670    -0.5870 hc         1 80A       0.046700
     41 H21          5.1350     2.7620    -1.3690 hc         1 80A       0.046700
     42 H21A         6.0080     1.5640    -2.3010 hc         1 80A       0.046700
     43 H22          4.6550    -0.1820    -1.6030 h1         1 80A       0.038450
     44 H22A         3.5180     1.0540    -1.0720 h1         1 80A       0.038450
@<TRIPOS>BOND
     1     1     2 ar  
     2     1     6 ar  
     3     1    23 1   
     4     2     3 ar  
     5     2    24 1   
     6     3     4 ar  
     7     3    15 1   
     8     4     5 ar  
     9     4    25 1   
    10     5     6 ar  
    11     5    26 1   
    12     6     7 1   
    13     7     8 1   
    14     7     9 1   
    15     7    27 1   
    16     8    28 1   
    17     9    10 ar  
    18     9    14 ar  
    19    10    11 ar  
    20    10    29 1   
    21    11    12 ar  
    22    11    30 1   
    23    12    13 ar  
    24    13    14 ar  
    25    13    31 1   
    26    14    32 1   
    27    15    16 1   
    28    16    17 1   
    29    16    33 1   
    30    16    34 1   
    31    17    18 1   
    32    17    35 1   
    33    17    36 1   
    34    18    19 1   
    35    18    22 1   
    36    19    20 1   
    37    19    37 1   
    38    19    38 1   
    39    20    21 1   
    40    20    39 1   
    41    20    40 1   
    42    21    22 1   
    43    21    41 1   
    44    21    42 1   
    45    22    43 1   
    46    22    44 1   
@<TRIPOS>SUBSTRUCTURE
     1 80A         1 TEMP              0 ****  ****    0 ROOT
