@<TRIPOS>MOLECULE
80C
   49    53     1     0     0
SMALL
bcc


@<TRIPOS>ATOM
      1 C1          -1.8930    62.0790    35.6290 c3         1 80C       0.122700
      2 C3          -2.6390    64.1220    34.6830 ca         1 80C       0.161100
      3 C4          -3.3160    64.7720    33.6480 ca         1 80C      -0.168000
      4 C5          -3.4190    66.1470    33.6510 ca         1 80C      -0.074000
      5 C6          -2.8640    66.9300    34.6660 cp         1 80C      -0.074000
      6 C7          -2.2100    66.2570    35.6910 ca         1 80C       0.090400
      7 C11         -4.2800    68.9580    34.6080 ca         1 80C      -0.083000
      8 C12         -4.4790    70.3500    34.5280 ca         1 80C      -0.134300
      9 C15         -1.9230    69.2630    34.5630 ca         1 80C       0.162900
     10 C18         -4.5510    73.1500    34.3940 ca         1 80C       0.498200
     11 C19         -5.7550    72.4240    34.4140 ca         1 80C      -0.074900
     12 C21         -7.7660    71.8000    34.4130 cc         1 80C       0.392700
     13 N22         -7.0360    70.6500    34.4860 na         1 80C      -0.123300
     14 C23         -7.5710    69.2900    34.4750 c6         1 80C       0.058000
     15 C24         -9.0210    69.2220    34.9370 c6         1 80C      -0.132900
     16 C27         -7.9600    67.2140    33.1420 c6         1 80C       0.151300
     17 O2          -2.5710    62.7860    34.6080 os         1 80C      -0.312900
     18 CL8         -1.5610    67.1440    37.0290 cl         1 80C      -0.097400
     19 C9          -2.0870    64.8740    35.7170 ca         1 80C      -0.219000
     20 C10         -3.0250    68.3960    34.6330 cp         1 80C      -0.064000
     21 C13         -3.3370    71.2010    34.4890 ca         1 80C       0.429600
     22 C14         -2.0550    70.6170    34.5030 ca         1 80C      -0.214300
     23 N17         -3.3910    72.5610    34.4270 nb         1 80C      -0.681000
     24 N20         -7.0420    72.8800    34.3740 nd         1 80C      -0.544100
     25 C25         -9.4690    67.7580    34.9380 c6         1 80C       0.151300
     26 N26         -9.3120    67.0930    33.6580 n7         1 80C      -0.790200
     27 C28         -7.4380    68.6510    33.0950 c6         1 80C      -0.132900
     28 C29         -5.7230    71.0340    34.4810 ca         1 80C      -0.053200
     29 H1          -1.9480    61.0270    35.3620 h1         1 80C       0.045367
     30 H2          -0.8420    62.3710    35.6970 h1         1 80C       0.045367
     31 H3          -2.3650    62.2200    36.6050 h1         1 80C       0.045367
     32 H4          -3.7510    64.1920    32.8440 ha         1 80C       0.151000
     33 H5          -3.9380    66.6400    32.8390 ha         1 80C       0.137000
     34 H6          -5.1230    68.2850    34.6620 ha         1 80C       0.133000
     35 H7          -4.5690    74.2350    34.3460 h4         1 80C       0.037100
     36 H8          -8.8440    71.7870    34.3960 h5         1 80C       0.065800
     37 H9          -6.9840    68.7220    35.2020 h1         1 80C       0.072700
     38 H10         -9.1300    69.6480    35.9370 hc         1 80C       0.059450
     39 H11         -9.6710    69.7850    34.2610 hc         1 80C       0.059450
     40 H12         -7.9190    66.7720    32.1460 h1         1 80C       0.060450
     41 H13         -7.2960    66.6170    33.7780 h1         1 80C       0.060450
     42 H14         -1.5720    64.4080    36.5450 ha         1 80C       0.153000
     43 H15         -1.1850    71.2590    34.4490 ha         1 80C       0.170000
     44 H16        -10.5150    67.6970    35.2420 h1         1 80C       0.060450
     45 H17         -8.8910    67.2070    35.6870 h1         1 80C       0.060450
     46 H18         -9.9600    67.4960    32.9920 hn         1 80C       0.354800
     47 H20         -6.3990    68.6560    32.7540 hc         1 80C       0.059450
     48 H21         -8.0150    69.2400    32.3750 hc         1 80C       0.059450
     49 F16         -0.6970    68.7260    34.5300 f          1 80C      -0.130900
@<TRIPOS>BOND
     1     1    17 1   
     2     1    29 1   
     3     1    30 1   
     4     1    31 1   
     5     2     3 ar  
     6     2    17 1   
     7     2    19 ar  
     8     3     4 ar  
     9     3    32 1   
    10     4     5 ar  
    11     4    33 1   
    12     5     6 ar  
    13     5    20 1   
    14     6    18 1   
    15     6    19 ar  
    16     7     8 ar  
    17     7    20 ar  
    18     7    34 1   
    19     8    21 ar  
    20     8    28 ar  
    21     9    20 ar  
    22     9    22 ar  
    23     9    49 1   
    24    10    11 ar  
    25    10    23 ar  
    26    10    35 1   
    27    11    24 1   
    28    11    28 ar  
    29    12    13 1   
    30    12    24 2   
    31    12    36 1   
    32    13    14 1   
    33    13    28 1   
    34    14    15 1   
    35    14    27 1   
    36    14    37 1   
    37    15    25 1   
    38    15    38 1   
    39    15    39 1   
    40    16    26 1   
    41    16    27 1   
    42    16    40 1   
    43    16    41 1   
    44    19    42 1   
    45    21    22 ar  
    46    21    23 ar  
    47    22    43 1   
    48    25    26 1   
    49    25    44 1   
    50    25    45 1   
    51    26    46 1   
    52    27    47 1   
    53    27    48 1   
@<TRIPOS>SUBSTRUCTURE
     1 80C         1 TEMP              0 ****  ****    0 ROOT
