@<TRIPOS>MOLECULE
80C
   49    53     1     0     0
SMALL
No Charge or Current Charge


@<TRIPOS>ATOM
      1 C1          -2.0100    61.9500    35.4370 c3         1 80C       0.145900
      2 C3          -2.5290    64.1590    34.4650 ca         1 80C       0.161100
      3 C4          -2.9220    64.8900    33.3340 ca         1 80C      -0.150000
      4 C5          -3.0650    66.2850    33.4030 ca         1 80C      -0.056000
      5 C6          -2.8100    66.9820    34.6070 cp         1 80C      -0.074000
      6 C7          -2.4250    66.2310    35.7490 ca         1 80C       0.182000
      7 C11         -4.2440    69.0370    34.4190 ca         1 80C      -0.065000
      8 C12         -4.4420    70.4370    34.4520 ca         1 80C      -0.069000
      9 C15         -1.8840    69.3300    34.8900 ca         1 80C       0.198000
     10 C18         -4.6100    73.2170    34.3980 ca         1 80C       0.432900
     11 C19         -5.7680    72.4430    34.1870 ca         1 80C      -0.009600
     12 C21         -7.7780    71.7640    33.7810 cc         1 80C       0.392700
     13 N22         -6.9940    70.6350    34.0450 na         1 80C      -0.152600
     14 C23         -7.5060    69.2770    34.3660 c6         1 80C       0.087300
     15 C24         -8.8810    69.3070    35.0870 c6         1 80C      -0.132900
     16 C27         -8.1330    66.9950    33.4280 c6         1 80C       0.151300
     17 O2          -2.4060    62.7910    34.3390 os         1 80C      -0.336100
     18 Cl8         -2.1540    67.0090    37.3080 cl         1 80C      -0.189000
     19 C9          -2.2830    64.8350    35.6780 ca         1 80C      -0.201000
     20 C10         -2.9740    68.4640    34.6510 cp         1 80C      -0.064000
     21 C13         -3.3170    71.2910    34.6710 ca         1 80C       0.299000
     22 C14         -2.0560    70.7170    34.8950 ca         1 80C      -0.131000
     23 N17         -3.4050    72.6460    34.6520 nb         1 80C      -0.681000
     24 N20         -7.0560    72.8950    33.8860 nd         1 80C      -0.544100
     25 C25         -9.3580    67.8690    35.3940 c6         1 80C       0.151300
     26 N26         -9.4280    67.0650    34.1490 n7         1 80C      -0.845400
     27 C28         -7.6200    68.4120    33.0830 c6         1 80C      -0.132900
     28 C29         -5.6990    71.0740    34.2520 ca         1 80C      -0.053200
     29 H1          -1.9730    60.9010    35.1190 h1         1 80C       0.045367
     30 H2          -1.0130    62.2290    35.8030 h1         1 80C       0.045367
     31 H3          -2.7240    62.0280    36.2660 h1         1 80C       0.045367
     32 H4          -3.1160    64.3700    32.4000 ha         1 80C       0.133000
     33 H5          -3.3690    66.8360    32.5150 ha         1 80C       0.119000
     34 H6          -5.0490    68.3540    34.1960 ha         1 80C       0.115000
     35 H7          -4.6450    74.3050    34.3620 h4         1 80C       0.037100
     36 H8          -8.8400    71.7070    33.5790 h5         1 80C       0.065800
     37 H9          -6.8170    68.8050    35.0770 h1         1 80C       0.072700
     38 H10         -8.8040    69.8770    36.0230 hc         1 80C       0.059450
     39 H11         -9.6380    69.8080    34.4700 hc         1 80C       0.059450
     40 H12         -8.2520    66.4090    32.5040 h1         1 80C       0.060450
     41 H13         -7.3890    66.4760    34.0530 h1         1 80C       0.060450
     42 H14         -1.9900    64.2980    36.5740 ha         1 80C       0.135000
     43 H15         -1.1970    71.3590    35.0610 ha         1 80C       0.152000
     44 H16        -10.3490    67.9010    35.8730 h1         1 80C       0.060450
     45 H17         -8.6640    67.3930    36.1040 h1         1 80C       0.060450
     46 H18        -10.1230    67.4950    33.5250 hn         1 80C       0.410000
     47 H20         -6.6510    68.3410    32.5730 hc         1 80C       0.059450
     48 H21         -8.3070    68.8890    32.3700 hc         1 80C       0.059450
     49 F16         -0.6420    68.8280    35.0780 f          1 80C      -0.166000
@<TRIPOS>BOND
     1     1    17 1   
     2     1    29 1   
     3     1    30 1   
     4     1    31 1   
     5     2     3 ar  
     6     2    17 1   
     7     2    19 ar  
     8     3     4 ar  
     9     3    32 1   
    10     4     5 ar  
    11     4    33 1   
    12     5     6 ar  
    13     5    20 1   
    14     6    18 1   
    15     6    19 ar  
    16     7     8 ar  
    17     7    20 ar  
    18     7    34 1   
    19     8    21 ar  
    20     8    28 ar  
    21     9    20 ar  
    22     9    22 ar  
    23     9    49 1   
    24    10    11 ar  
    25    10    23 ar  
    26    10    35 1   
    27    11    24 1   
    28    11    28 ar  
    29    12    13 1   
    30    12    24 2   
    31    12    36 1   
    32    13    14 1   
    33    13    28 1   
    34    14    15 1   
    35    14    27 1   
    36    14    37 1   
    37    15    25 1   
    38    15    38 1   
    39    15    39 1   
    40    16    26 1   
    41    16    27 1   
    42    16    40 1   
    43    16    41 1   
    44    19    42 1   
    45    21    22 ar  
    46    21    23 ar  
    47    22    43 1   
    48    25    26 1   
    49    25    44 1   
    50    25    45 1   
    51    26    46 1   
    52    27    47 1   
    53    27    48 1   
@<TRIPOS>SUBSTRUCTURE
     1 80C         1 TEMP              0 ****  ****    0 ROOT
