@<TRIPOS>MOLECULE
80D
   44    47     1     0     0
SMALL
abcg2


@<TRIPOS>ATOM
      1 N1          -1.2960   -22.6470   -12.1470 nb         1 80D      -0.286000
      2 C8          -1.3290   -21.0390    -8.0230 cc         1 80D       0.406700
      3 C5          -1.2030   -22.1480    -9.8370 ca         1 80D      -0.102600
      4 C6          -1.0370   -23.0700   -10.8900 ca         1 80D       0.463900
      5 N3          -1.9080   -20.4440   -11.4320 nb         1 80D      -0.213000
      6 C4          -1.6370   -20.8710   -10.1890 ca         1 80D       0.136500
      7 C2          -1.7010   -21.3980   -12.3160 ca         1 80D       0.285000
      8 N7          -1.7200   -20.1710    -9.0140 na         1 80D      -0.282300
      9 N9          -1.0170   -22.2330    -8.4700 nd         1 80D      -0.547100
     10 N10         -0.6360   -24.3320   -10.7060 nv         1 80D      -1.058900
     11 CL1         -1.9990   -20.9400   -13.9890 cl         1 80D      -0.145000
     12 C12         -2.0450   -18.7510    -8.8630 c3         1 80D       0.136900
     13 C13         -0.8570   -17.8700    -9.1710 ca         1 80D      -0.092300
     14 C14         -0.0240   -17.4440    -8.1370 ca         1 80D      -0.158000
     15 C15          1.0910   -16.6650    -8.4350 ca         1 80D       0.129100
     16 C16          1.3730   -16.3200    -9.7550 ca         1 80D      -0.106000
     17 C17          0.5420   -16.7440   -10.7900 cp         1 80D      -0.011000
     18 C18         -0.5820   -17.5180   -10.4840 ca         1 80D      -0.092000
     19 O19          1.9830   -16.1890    -7.5120 os         1 80D      -0.334100
     20 C20          1.9140   -16.5990    -6.1560 c3         1 80D       0.110600
     21 C21          1.1430   -15.6190    -5.3000 c3         1 80D       0.141300
     22 F22          1.6910   -14.3640    -5.4020 f          1 80D      -0.116500
     23 F23         -0.1600   -15.4990    -5.7210 f          1 80D      -0.116500
     24 C24          0.8430   -16.3950   -12.1950 cp         1 80D       0.000000
     25 C25          1.4580   -15.1900   -12.5410 ca         1 80D      -0.151000
     26 C26          1.7160   -14.9140   -13.8760 ca         1 80D       0.330900
     27 N27          1.4070   -15.7440   -14.8780 nb         1 80D      -0.660000
     28 C28          0.8170   -16.8980   -14.5470 ca         1 80D       0.330900
     29 C29          0.5200   -17.2620   -13.2420 ca         1 80D      -0.151000
     30 H1          -1.3020   -20.7260    -6.9910 h5         1 80D       0.066800
     31 H2          -0.5150   -24.9430   -11.4970 hn         1 80D       0.512500
     32 H3          -0.4170   -24.6730    -9.7860 hn         1 80D       0.512500
     33 H4          -2.3850   -18.6070    -7.8390 h1         1 80D       0.075700
     34 H5          -2.8730   -18.5310    -9.5350 h1         1 80D       0.075700
     35 H6          -0.2710   -17.7090    -7.1200 ha         1 80D       0.116000
     36 H7           2.2620   -15.7360    -9.9560 ha         1 80D       0.135000
     37 H8          -1.2470   -17.8440   -11.2700 ha         1 80D       0.143000
     38 H9           1.4880   -17.5960    -6.0420 h1         1 80D       0.074200
     39 H10          2.9390   -16.6200    -5.7850 h1         1 80D       0.074200
     40 H11          1.1380   -15.9080    -4.2470 h2         1 80D       0.064700
     41 H12          1.7210   -14.4610   -11.7860 ha         1 80D       0.129500
     42 H13          2.1900   -13.9780   -14.1530 h4         1 80D       0.021100
     43 H14          0.5740   -17.5690   -15.3640 h4         1 80D       0.021100
     44 H15          0.0580   -18.2210   -13.0490 ha         1 80D       0.129500
@<TRIPOS>BOND
     1     1     4 ar  
     2     1     7 ar  
     3     2     8 1   
     4     2     9 2   
     5     2    30 1   
     6     3     4 ar  
     7     3     6 ar  
     8     3     9 1   
     9     4    10 1   
    10     5     6 ar  
    11     5     7 ar  
    12     6     8 1   
    13     7    11 1   
    14     8    12 1   
    15    10    31 1   
    16    10    32 1   
    17    12    13 1   
    18    12    33 1   
    19    12    34 1   
    20    13    14 ar  
    21    13    18 ar  
    22    14    15 ar  
    23    14    35 1   
    24    15    16 ar  
    25    15    19 1   
    26    16    17 ar  
    27    16    36 1   
    28    17    18 ar  
    29    17    24 1   
    30    18    37 1   
    31    19    20 1   
    32    20    21 1   
    33    20    38 1   
    34    20    39 1   
    35    21    22 1   
    36    21    23 1   
    37    21    40 1   
    38    24    25 ar  
    39    24    29 ar  
    40    25    26 ar  
    41    25    41 1   
    42    26    27 ar  
    43    26    42 1   
    44    27    28 ar  
    45    28    29 ar  
    46    28    43 1   
    47    29    44 1   
@<TRIPOS>SUBSTRUCTURE
     1 80D         1 TEMP              0 ****  ****    0 ROOT
