@<TRIPOS>MOLECULE
80D
   44    47     1     0     0
SMALL
No Charge or Current Charge


@<TRIPOS>ATOM
      1 N1          -1.1870   -22.8310   -12.0500 nb         1 80D      -0.286000
      2 C8          -1.5680   -21.1020    -7.8950 cc         1 80D       0.406700
      3 C5          -1.3370   -22.1990    -9.7410 ca         1 80D      -0.102600
      4 C6          -1.1120   -23.1580   -10.7500 ca         1 80D       0.463900
      5 N3          -1.7350   -20.5560   -11.4220 nb         1 80D      -0.213000
      6 C4          -1.6450   -20.9180   -10.1280 ca         1 80D       0.136500
      7 C2          -1.4970   -21.5410   -12.3190 ca         1 80D       0.285000
      8 N7          -1.7960   -20.2290    -8.9600 na         1 80D      -0.282300
      9 N9          -1.2850   -22.3400    -8.3460 nd         1 80D      -0.547100
     10 N10         -0.7980   -24.4510   -10.4710 nv         1 80D      -1.058900
     11 Cl1         -1.5890   -21.0920   -14.0140 cl         1 80D      -0.145000
     12 C12         -2.0710   -18.7850    -8.9120 c3         1 80D       0.136900
     13 C13         -0.8320   -17.9500    -9.2080 ca         1 80D      -0.092300
     14 C14          0.0900   -17.6590    -8.1860 ca         1 80D      -0.158000
     15 C15          1.2430   -16.8950    -8.4670 ca         1 80D       0.129100
     16 C16          1.4750   -16.4500    -9.7780 ca         1 80D      -0.106000
     17 C17          0.5680   -16.7330   -10.8280 cp         1 80D      -0.011000
     18 C18         -0.5910   -17.4830   -10.5140 ca         1 80D      -0.092000
     19 O19          2.1930   -16.5870    -7.5100 os         1 80D      -0.334100
     20 C20          1.9790   -16.7240    -6.0840 c3         1 80D       0.110600
     21 C21          1.1310   -15.5440    -5.5390 c3         1 80D       0.141300
     22 F22          1.6860   -14.3600    -5.8930 f          1 80D      -0.116500
     23 F23         -0.1270   -15.5660    -6.0380 f          1 80D      -0.116500
     24 C24          0.8270   -16.2650   -12.2270 cp         1 80D       0.000000
     25 C25          1.4880   -15.0440   -12.4990 ca         1 80D      -0.151000
     26 C26          1.7110   -14.6430   -13.8270 ca         1 80D       0.330900
     27 N27          1.3220   -15.3780   -14.8930 nb         1 80D      -0.660000
     28 C28          0.6910   -16.5490   -14.6510 ca         1 80D       0.330900
     29 C29          0.4270   -17.0220   -13.3550 ca         1 80D      -0.151000
     30 H1          -1.6160   -20.7860    -6.8590 h5         1 80D       0.066800
     31 H2          -0.3600   -25.0040   -11.2040 hn         1 80D       0.512500
     32 H3          -0.5200   -24.6610    -9.5150 hn         1 80D       0.512500
     33 H4          -2.4540   -18.5280    -7.9160 h1         1 80D       0.075700
     34 H5          -2.8620   -18.5490    -9.6360 h1         1 80D       0.075700
     35 H6          -0.1020   -18.0380    -7.1880 ha         1 80D       0.116000
     36 H7           2.3820   -15.8890    -9.9820 ha         1 80D       0.135000
     37 H8          -1.3130   -17.7040   -11.2960 ha         1 80D       0.143000
     38 H9           1.5170   -17.6840    -5.8270 h1         1 80D       0.074200
     39 H10          2.9470   -16.6970    -5.5690 h1         1 80D       0.074200
     40 H11          1.0760   -15.5980    -4.4470 h2         1 80D       0.064700
     41 H12          1.8170   -14.3970   -11.6920 ha         1 80D       0.129500
     42 H13          2.2150   -13.7020   -14.0440 h4         1 80D       0.021100
     43 H14          0.3900   -17.1280   -15.5230 h4         1 80D       0.021100
     44 H15         -0.0720   -17.9790   -13.2370 ha         1 80D       0.129500
@<TRIPOS>BOND
     1     1     4 ar  
     2     1     7 ar  
     3     2     8 1   
     4     2     9 2   
     5     2    30 1   
     6     3     4 ar  
     7     3     6 ar  
     8     3     9 1   
     9     4    10 1   
    10     5     6 ar  
    11     5     7 ar  
    12     6     8 1   
    13     7    11 1   
    14     8    12 1   
    15    10    31 1   
    16    10    32 1   
    17    12    13 1   
    18    12    33 1   
    19    12    34 1   
    20    13    14 ar  
    21    13    18 ar  
    22    14    15 ar  
    23    14    35 1   
    24    15    16 ar  
    25    15    19 1   
    26    16    17 ar  
    27    16    36 1   
    28    17    18 ar  
    29    17    24 1   
    30    18    37 1   
    31    19    20 1   
    32    20    21 1   
    33    20    38 1   
    34    20    39 1   
    35    21    22 1   
    36    21    23 1   
    37    21    40 1   
    38    24    25 ar  
    39    24    29 ar  
    40    25    26 ar  
    41    25    41 1   
    42    26    27 ar  
    43    26    42 1   
    44    27    28 ar  
    45    28    29 ar  
    46    28    43 1   
    47    29    44 1   
@<TRIPOS>SUBSTRUCTURE
     1 80D         1 TEMP              0 ****  ****    0 ROOT
