@<TRIPOS>MOLECULE
80E
   42    44     1     0     0
SMALL
bcc


@<TRIPOS>ATOM
      1 C10        -19.8900    -3.0120   -19.7800 c3         1 80E       0.242800
      2 C13        -18.1220    -3.5890   -22.7680 cc         1 80E      -0.117100
      3 C15        -18.1970    -1.5410   -23.6400 ca         1 80E      -0.049200
      4 C17        -18.5130    -0.1580   -21.6750 ca         1 80E      -0.066000
      5 C20        -18.1920    -0.4270   -24.4790 ca         1 80E      -0.158000
      6 C21        -21.0240    -3.3820   -16.2110 ca         1 80E      -0.257600
      7 C22        -19.7550    -3.7930   -15.4770 c          1 80E       0.938200
      8 C04        -25.5760    -2.6600   -13.1150 c3         1 80E       0.134700
      9 C05        -23.3980    -2.8290   -16.0490 ca         1 80E      -0.266600
     10 C06        -23.4310    -2.6260   -17.4320 ca         1 80E      -0.025000
     11 C07        -22.3040    -2.7860   -18.2000 ca         1 80E      -0.294000
     12 C08        -21.0690    -3.1600   -17.6200 ca         1 80E       0.268600
     13 C11        -18.4480    -3.1380   -20.2670 c3         1 80E      -0.024200
     14 C12        -18.3050    -2.7560   -21.7010 cd         1 80E      -0.119400
     15 C16        -18.3570    -1.4290   -22.2410 ca         1 80E      -0.095800
     16 C18        -18.5080     0.9490   -22.5010 ca         1 80E      -0.169000
     17 C19        -18.3490     0.8140   -23.8900 ca         1 80E      -0.114000
     18 C25        -22.1810    -3.2080   -15.4760 ca         1 80E       0.003000
     19 N09        -19.9670    -3.3010   -18.3730 nu         1 80E      -0.792600
     20 N14        -18.0590    -2.8670   -23.9270 na         1 80E      -0.181400
     21 O01        -25.6940    -2.3110   -15.7390 o          1 80E      -0.597000
     22 O03        -24.4480    -2.8330   -13.9640 os         1 80E      -0.408900
     23 O23        -19.8320    -3.9430   -14.2460 o          1 80E      -0.828300
     24 O24        -18.7150    -3.9540   -16.1660 o          1 80E      -0.828300
     25 H1         -20.2550    -1.9980   -19.9840 h1         1 80E       0.025700
     26 H2         -20.5250    -3.6910   -20.3600 h1         1 80E       0.025700
     27 H3         -18.0270    -4.6640   -22.7850 h4         1 80E       0.161000
     28 H4         -18.6350    -0.0430   -20.6040 ha         1 80E       0.144000
     29 H5         -18.0670    -0.5280   -25.5490 ha         1 80E       0.122000
     30 H6         -25.2280    -2.8730   -12.1080 h1         1 80E       0.033367
     31 H7         -25.9580    -1.6400   -13.1530 h1         1 80E       0.033367
     32 H8         -26.3820    -3.3500   -13.3680 h1         1 80E       0.033367
     33 H9         -24.3570    -2.3370   -17.9140 ha         1 80E       0.120000
     34 H10        -22.3700    -2.6220   -19.2680 ha         1 80E       0.112000
     35 H11        -18.1050    -4.1650   -20.1170 hc         1 80E       0.058700
     36 H12        -17.8100    -2.5020   -19.6450 hc         1 80E       0.058700
     37 H13        -18.6270     1.9370   -22.0750 ha         1 80E       0.126000
     38 H14        -18.3490     1.7000   -24.5130 ha         1 80E       0.119000
     39 H15        -22.1150    -3.3740   -14.4100 ha         1 80E       0.160000
     40 H16        -19.1410    -3.5700   -17.8340 hn         1 80E       0.507800
     41 H17        -17.9100    -3.2570   -24.8430 hn         1 80E       0.291700
     42 C02        -24.6230    -2.6300   -15.2690 c          1 80E       0.672700
@<TRIPOS>BOND
     1     1    13 1   
     2     1    19 1   
     3     1    25 1   
     4     1    26 1   
     5     2    14 2   
     6     2    20 1   
     7     2    27 1   
     8     3     5 ar  
     9     3    15 ar  
    10     3    20 1   
    11     4    15 ar  
    12     4    16 ar  
    13     4    28 1   
    14     5    17 ar  
    15     5    29 1   
    16     6     7 1   
    17     6    12 ar  
    18     6    18 ar  
    19     7    23 1   
    20     7    24 1   
    21     8    22 1   
    22     8    30 1   
    23     8    31 1   
    24     8    32 1   
    25     9    10 ar  
    26     9    18 ar  
    27     9    42 1   
    28    10    11 ar  
    29    10    33 1   
    30    11    12 ar  
    31    11    34 1   
    32    12    19 1   
    33    13    14 1   
    34    13    35 1   
    35    13    36 1   
    36    14    15 1   
    37    16    17 ar  
    38    16    37 1   
    39    17    38 1   
    40    18    39 1   
    41    19    40 1   
    42    20    41 1   
    43    21    42 2   
    44    22    42 1   
@<TRIPOS>SUBSTRUCTURE
     1 80E         1 TEMP              0 ****  ****    0 ROOT
