@<TRIPOS>MOLECULE
80E
   42    44     1     0     0
SMALL
No Charge or Current Charge


@<TRIPOS>ATOM
      1 C10        -19.9590    -3.0460   -19.8810 c3         1 80E       0.242800
      2 C13        -18.2860    -3.6530   -22.9450 cc         1 80E      -0.167100
      3 C15        -18.1460    -1.4740   -23.6330 ca         1 80E      -0.049200
      4 C17        -18.3050    -0.2310   -21.5600 ca         1 80E      -0.048000
      5 C20        -18.0320    -0.3030   -24.3930 ca         1 80E      -0.140000
      6 C21        -21.0350    -3.2100   -16.2640 ca         1 80E      -0.257600
      7 C22        -19.6860    -3.2840   -15.5880 c          1 80E       0.727600
      8 C04        -25.5570    -2.4980   -12.9530 c3         1 80E       0.157900
      9 C05        -23.4790    -2.9810   -16.0420 ca         1 80E      -0.266600
     10 C06        -23.6060    -3.1060   -17.4370 ca         1 80E      -0.007000
     11 C07        -22.4680    -3.2770   -18.2350 ca         1 80E      -0.276000
     12 C08        -21.1870    -3.3230   -17.6620 ca         1 80E       0.407000
     13 C11        -18.5280    -3.2660   -20.4100 c3         1 80E      -0.024200
     14 C12        -18.3680    -2.8130   -21.8400 cd         1 80E      -0.119400
     15 C16        -18.2770    -1.4370   -22.2740 ca         1 80E      -0.095800
     16 C18        -18.1920     0.9670   -22.2990 ca         1 80E      -0.151000
     17 C19        -18.0560     0.9320   -23.7090 ca         1 80E      -0.096000
     18 C25        -22.1900    -3.0380   -15.4650 ca         1 80E       0.021000
     19 N09        -20.0820    -3.4900   -18.4850 nu         1 80E      -0.986200
     20 N14        -18.1490    -2.7910   -24.0550 na         1 80E      -0.231700
     21 O01        -25.8420    -2.7490   -15.6640 o          1 80E      -0.548000
     22 O03        -24.4480    -2.6800   -13.8520 os         1 80E      -0.432100
     23 O23        -19.6540    -3.5700   -14.4000 o          1 80E      -0.723000
     24 O24        -18.6740    -3.0560   -16.2370 o          1 80E      -0.723000
     25 H1         -20.2070    -1.9780   -19.9510 h1         1 80E       0.025700
     26 H2         -20.6630    -3.6000   -20.5170 h1         1 80E       0.025700
     27 H3         -18.3150    -4.7360   -23.0280 h4         1 80E       0.211000
     28 H4         -18.4080    -0.2160   -20.4780 ha         1 80E       0.126000
     29 H5         -17.9280    -0.3420   -25.4750 ha         1 80E       0.104000
     30 H6         -25.1990    -2.4230   -11.9190 h1         1 80E       0.033367
     31 H7         -26.1070    -1.5790   -13.1920 h1         1 80E       0.033367
     32 H8         -26.2510    -3.3470   -13.0130 h1         1 80E       0.033367
     33 H9         -24.5860    -3.0720   -17.9090 ha         1 80E       0.102000
     34 H10        -22.5950    -3.3760   -19.3080 ha         1 80E       0.094000
     35 H11        -18.2760    -4.3300   -20.3250 hc         1 80E       0.058700
     36 H12        -17.8190    -2.7260   -19.7710 hc         1 80E       0.058700
     37 H13        -18.2090     1.9240   -21.7810 ha         1 80E       0.108000
     38 H14        -17.9700     1.8610   -24.2680 ha         1 80E       0.101000
     39 H15        -22.0780    -2.9440   -14.3860 ha         1 80E       0.142000
     40 H16        -19.2240    -3.4040   -17.9180 hn         1 80E       0.563000
     41 H17        -18.0640    -3.0880   -25.0230 hn         1 80E       0.342000
     42 C02        -24.7130    -2.7950   -15.1920 c          1 80E       0.623700
@<TRIPOS>BOND
     1     1    13 1   
     2     1    19 1   
     3     1    25 1   
     4     1    26 1   
     5     2    14 2   
     6     2    20 1   
     7     2    27 1   
     8     3     5 ar  
     9     3    15 ar  
    10     3    20 1   
    11     4    15 ar  
    12     4    16 ar  
    13     4    28 1   
    14     5    17 ar  
    15     5    29 1   
    16     6     7 1   
    17     6    12 ar  
    18     6    18 ar  
    19     7    23 1   
    20     7    24 1   
    21     8    22 1   
    22     8    30 1   
    23     8    31 1   
    24     8    32 1   
    25     9    10 ar  
    26     9    18 ar  
    27     9    42 1   
    28    10    11 ar  
    29    10    33 1   
    30    11    12 ar  
    31    11    34 1   
    32    12    19 1   
    33    13    14 1   
    34    13    35 1   
    35    13    36 1   
    36    14    15 1   
    37    16    17 ar  
    38    16    37 1   
    39    17    38 1   
    40    18    39 1   
    41    19    40 1   
    42    20    41 1   
    43    21    42 2   
    44    22    42 1   
@<TRIPOS>SUBSTRUCTURE
     1 80E         1 TEMP              0 ****  ****    0 ROOT
