@<TRIPOS>MOLECULE
80F
   82    86     1     0     0
SMALL
No Charge or Current Charge


@<TRIPOS>ATOM
      1 PA         -10.8610   -23.8510   -26.0730 p5         1 80F       1.451800
      2 O1A         -9.5090   -23.8540   -25.4440 o          1 80F      -0.823000
      3 O2A        -11.9200   -23.2400   -25.2190 o          1 80F      -0.823000
      4 O5B        -11.2900   -25.3740   -26.3980 os         1 80F      -0.595400
      5 C5B        -10.3350   -26.3680   -26.8220 c3         1 80F       0.222600
      6 C4B         -9.8420   -26.0600   -28.2580 c5         1 80F       0.097300
      7 O4B         -8.9630   -27.1000   -28.7420 os         1 80F      -0.459000
      8 C3B        -10.9940   -25.9590   -29.3260 c5         1 80F       0.118300
      9 O3B        -11.1070   -24.6250   -29.8460 oh         1 80F      -0.733000
     10 C2B        -10.5290   -26.9520   -30.4380 c5         1 80F       0.120300
     11 O2B        -10.9070   -26.4510   -31.7240 oh         1 80F      -0.697000
     12 C1B         -8.9920   -26.9970   -30.1730 c5         1 80F       0.315300
     13 N9A         -8.2160   -28.0860   -30.7630 na         1 80F      -0.273300
     14 C8A         -8.7220   -29.1220   -31.5590 cc         1 80F       0.447700
     15 N7A         -7.7420   -29.9590   -31.9570 nd         1 80F      -0.576100
     16 C5A         -6.5920   -29.4010   -31.3870 ca         1 80F      -0.090600
     17 C6A         -5.2510   -29.8360   -31.4570 ca         1 80F       0.436900
     18 N6A         -4.8700   -30.9480   -32.1400 nv         1 80F      -1.080900
     19 N1A         -4.2680   -29.1650   -30.8350 nb         1 80F      -0.329000
     20 C2A         -4.6450   -28.0560   -30.1520 ca         1 80F       0.151900
     21 N3A         -5.9020   -27.5640   -30.0330 nb         1 80F      -0.193000
     22 C4A         -6.8650   -28.2660   -30.6640 ca         1 80F       0.125500
     23 O3         -10.9070   -23.3130   -27.5600 os         1 80F      -0.739800
     24 PN         -10.2560   -21.8780   -27.7050 p5         1 80F       1.483800
     25 O1N        -10.1630   -21.0650   -26.4590 o          1 80F      -0.853000
     26 O2N        -10.9830   -21.1220   -28.7640 o          1 80F      -0.853000
     27 O5D         -8.8000   -22.3600   -28.1970 os         1 80F      -0.612400
     28 C5D         -8.5170   -22.5290   -29.5950 c3         1 80F       0.241600
     29 C4D         -7.5520   -21.4100   -30.1010 c5         1 80F       0.154300
     30 O4D         -7.8340   -20.1270   -29.4590 os         1 80F      -0.462000
     31 C3D         -6.0350   -21.7310   -29.7960 c5         1 80F       0.145300
     32 O3D         -5.1450   -21.3670   -30.8610 oh         1 80F      -0.749000
     33 C2D         -5.7660   -20.8110   -28.5770 c5         1 80F       0.091300
     34 O2D         -4.3470   -20.5930   -28.3680 oh         1 80F      -0.741000
     35 C1D         -6.5770   -19.5610   -29.0680 c5         1 80F       0.435500
     36 N1N         -6.7380   -18.6160   -27.9250 nh         1 80F      -0.557200
     37 C2N         -7.3700   -19.0970   -26.7770 c2         1 80F       0.069000
     38 C3N         -6.8080   -18.9580   -25.5500 ce         1 80F      -0.252400
     39 C7N         -7.5100   -19.2970   -24.2700 c          1 80F       0.630300
     40 O7N         -7.0730   -19.0130   -23.1680 o          1 80F      -0.706100
     41 C4N         -5.3900   -18.3630   -25.4490 c6         1 80F       0.197700
     42 C5N         -5.1330   -17.4600   -26.6430 c2         1 80F      -0.276200
     43 C6N         -5.7520   -17.6430   -27.8170 c2         1 80F      -0.002000
     44 C           -1.8650   -20.6860   -23.2590 c          1 80F       0.689000
     45 O           -0.9210   -21.0990   -23.9200 o          1 80F      -0.753500
     46 CA          -3.2450   -21.4430   -23.3730 c3         1 80F       0.028500
     47 N           -3.6230   -22.2890   -22.1740 n8         1 80F      -0.968200
     48 SG          -4.1350   -19.7290   -25.4260 ss         1 80F      -0.494000
     49 N7N         -8.7000   -19.9200   -24.3420 nt         1 80F      -0.578000
     50 H2         -10.8020   -27.3610   -26.8140 h1         1 80F       0.038700
     51 H3          -9.4730   -26.4010   -26.1420 h1         1 80F       0.038700
     52 H4          -9.2560   -25.1310   -28.2270 h1         1 80F       0.109700
     53 H5         -11.9550   -26.2870   -28.9010 h1         1 80F       0.084700
     54 H6         -11.1560   -24.0330   -29.0380 ho         1 80F       0.523000
     55 H7         -10.9720   -27.9430   -30.2640 h1         1 80F       0.052700
     56 H8         -11.1430   -25.5090   -31.5100 ho         1 80F       0.499000
     57 H9          -8.5170   -26.0610   -30.4960 h2         1 80F       0.106700
     58 H10         -9.7740   -29.2110   -31.8070 h5         1 80F       0.100800
     59 H11         -3.9700   -31.3610   -31.9110 hn         1 80F       0.497000
     60 H12         -5.6080   -31.5870   -32.4290 hn         1 80F       0.497000
     61 H13         -3.8550   -27.5020   -29.6460 h5         1 80F       0.026100
     62 H15         -9.4320   -22.4930   -30.1990 h1         1 80F       0.015200
     63 H16         -8.0600   -23.5110   -29.7740 h1         1 80F       0.015200
     64 H17         -7.7010   -21.3000   -31.1840 h1         1 80F       0.037700
     65 H18         -5.8910   -22.7880   -29.5250 h1         1 80F       0.071700
     66 H19         -4.3470   -21.0360   -30.3750 ho         1 80F       0.520000
     67 H20         -6.2360   -21.2440   -27.6820 h1         1 80F       0.132700
     68 H21         -4.2680   -20.1410   -27.4830 ho         1 80F       0.563000
     69 H22         -6.0930   -19.0830   -29.9300 h2         1 80F       0.046700
     70 H23         -8.3670   -19.5060   -26.9450 h4         1 80F       0.240000
     71 H24         -5.2800   -17.7780   -24.5230 h1         1 80F       0.078700
     72 H25         -4.3670   -16.6940   -26.5240 ha         1 80F       0.168000
     73 H27         -5.5440   -17.0510   -28.7120 h4         1 80F       0.163000
     74 H30         -3.1460   -22.1300   -24.2240 h1         1 80F       0.074700
     75 H31         -2.8790   -22.9780   -22.0050 hn         1 80F       0.365000
     76 H32         -3.5930   -21.6970   -21.3350 hn         1 80F       0.365000
     77 H34         -4.4240   -19.6470   -22.9930 h1         1 80F       0.068700
     78 H35         -5.3400   -20.9870   -23.7260 h1         1 80F       0.068700
     79 H36         -9.1730   -20.1510   -23.4840 hn         1 80F       0.339500
     80 H37         -9.0940   -20.2270   -25.2260 hn         1 80F       0.339500
     81 CB          -4.3820   -20.4530   -23.7370 c3         1 80F       0.121600
     82 OXT         -1.7410   -19.8240   -22.3970 o          1 80F      -0.753500
@<TRIPOS>BOND
     1     1     2 1   
     2     1     3 1   
     3     1     4 1   
     4     1    23 1   
     5     4     5 1   
     6     5     6 1   
     7     5    50 1   
     8     5    51 1   
     9     6     7 1   
    10     6     8 1   
    11     6    52 1   
    12     7    12 1   
    13     8     9 1   
    14     8    10 1   
    15     8    53 1   
    16     9    54 1   
    17    10    11 1   
    18    10    12 1   
    19    10    55 1   
    20    11    56 1   
    21    12    13 1   
    22    12    57 1   
    23    13    14 1   
    24    13    22 1   
    25    14    15 2   
    26    14    58 1   
    27    15    16 1   
    28    16    17 ar  
    29    16    22 ar  
    30    17    18 1   
    31    17    19 ar  
    32    18    59 1   
    33    18    60 1   
    34    19    20 ar  
    35    20    21 ar  
    36    20    61 1   
    37    21    22 ar  
    38    23    24 1   
    39    24    25 1   
    40    24    26 1   
    41    24    27 1   
    42    27    28 1   
    43    28    29 1   
    44    28    62 1   
    45    28    63 1   
    46    29    30 1   
    47    29    31 1   
    48    29    64 1   
    49    30    35 1   
    50    31    32 1   
    51    31    33 1   
    52    31    65 1   
    53    32    66 1   
    54    33    34 1   
    55    33    35 1   
    56    33    67 1   
    57    34    68 1   
    58    35    36 1   
    59    35    69 1   
    60    36    37 1   
    61    36    43 1   
    62    37    38 2   
    63    37    70 1   
    64    38    39 1   
    65    38    41 1   
    66    39    40 2   
    67    39    49 1   
    68    41    42 1   
    69    41    48 1   
    70    41    71 1   
    71    42    43 2   
    72    42    72 1   
    73    43    73 1   
    74    44    45 1   
    75    44    46 1   
    76    44    82 1   
    77    46    47 1   
    78    46    74 1   
    79    46    81 1   
    80    47    75 1   
    81    47    76 1   
    82    48    81 1   
    83    49    79 1   
    84    49    80 1   
    85    77    81 1   
    86    78    81 1   
@<TRIPOS>SUBSTRUCTURE
     1 80F         1 TEMP              0 ****  ****    0 ROOT
