@<TRIPOS>MOLECULE
80F
   82    86     1     0     0
SMALL
abcg2


@<TRIPOS>ATOM
      1 PA          -9.8210   -22.9160   -25.8560 p5         1 80F       1.451800
      2 O1A         -8.4640   -22.3220   -25.6310 o          1 80F      -0.823000
      3 O2A        -10.8530   -22.9840   -24.7820 o          1 80F      -0.823000
      4 O5B         -9.6660   -24.4610   -26.3980 os         1 80F      -0.595400
      5 C5B         -8.6650   -24.8410   -27.3150 c3         1 80F       0.222600
      6 C4B         -9.2800   -25.0850   -28.6880 c5         1 80F       0.097300
      7 O4B         -8.2250   -25.3310   -29.6270 os         1 80F      -0.459000
      8 C3B        -10.2030   -26.3050   -28.7610 c5         1 80F       0.118300
      9 O3B        -11.1600   -26.1930   -29.7820 oh         1 80F      -0.733000
     10 C2B         -9.2090   -27.3920   -29.1690 c5         1 80F       0.120300
     11 O2B         -9.7260   -28.5220   -29.7950 oh         1 80F      -0.697000
     12 C1B         -8.3220   -26.6250   -30.1470 c5         1 80F       0.315300
     13 N9A         -7.0010   -27.1800   -30.2950 na         1 80F      -0.273300
     14 C8A         -5.9970   -27.1910   -29.3640 cc         1 80F       0.447700
     15 N7A         -4.9200   -27.7900   -29.7780 nd         1 80F      -0.576100
     16 C5A         -5.2260   -28.2050   -31.0480 ca         1 80F      -0.090600
     17 C6A         -4.4980   -28.9060   -32.0270 ca         1 80F       0.436900
     18 N6A         -3.2480   -29.3290   -31.8320 nv         1 80F      -1.080900
     19 N1A         -5.1010   -29.1580   -33.1950 nb         1 80F      -0.329000
     20 C2A         -6.3490   -28.7390   -33.3830 ca         1 80F       0.151900
     21 N3A         -7.1300   -28.0770   -32.5470 nb         1 80F      -0.193000
     22 C4A         -6.5170   -27.8340   -31.3900 ca         1 80F       0.125500
     23 O3         -10.4890   -22.2540   -27.2170 os         1 80F      -0.739800
     24 PN         -10.7930   -20.6600   -27.4810 p5         1 80F       1.483800
     25 O1N        -10.6320   -19.8920   -26.2030 o          1 80F      -0.853000
     26 O2N        -12.0390   -20.5920   -28.2990 o          1 80F      -0.853000
     27 O5D         -9.4990   -20.2270   -28.3900 os         1 80F      -0.612400
     28 C5D         -9.4770   -20.2970   -29.7950 c3         1 80F       0.241600
     29 C4D         -8.0640   -20.5830   -30.2620 c5         1 80F       0.154300
     30 O4D         -7.1740   -19.5810   -29.7630 os         1 80F      -0.462000
     31 C3D         -7.5130   -21.9380   -29.8020 c5         1 80F       0.145300
     32 O3D         -6.7200   -22.4740   -30.8330 oh         1 80F      -0.749000
     33 C2D         -6.6920   -21.5390   -28.5880 c5         1 80F       0.091300
     34 O2D         -5.7010   -22.4640   -28.2520 oh         1 80F      -0.741000
     35 C1D         -6.1430   -20.1770   -29.0230 c5         1 80F       0.435500
     36 N1N         -5.7630   -19.3690   -27.8950 nh         1 80F      -0.557200
     37 C2N         -6.6620   -19.1260   -26.8820 c2         1 80F       0.069000
     38 C3N         -6.2510   -18.9640   -25.6130 ce         1 80F      -0.252400
     39 C7N         -7.1300   -18.4780   -24.5230 c          1 80F       0.630300
     40 O7N         -6.6390   -17.9380   -23.5340 o          1 80F      -0.706100
     41 C4N         -4.8200   -19.2770   -25.2940 c6         1 80F       0.197700
     42 C5N         -3.9500   -18.8950   -26.4470 c2         1 80F      -0.276200
     43 C6N         -4.4280   -19.0670   -27.6810 c2         1 80F      -0.002000
     44 C           -4.2050   -23.4870   -23.1080 c          1 80F       0.689000
     45 O           -3.6170   -24.0490   -24.0530 o          1 80F      -0.753500
     46 CA          -5.6440   -22.9840   -23.3760 c3         1 80F       0.028500
     47 N           -6.5750   -23.2010   -22.2720 n8         1 80F      -0.968200
     48 SG          -4.5540   -21.1050   -25.0840 ss         1 80F      -0.494000
     49 N7N         -8.4570   -18.6400   -24.6580 nt         1 80F      -0.578000
     50 H2          -8.1910   -25.7560   -26.9430 h1         1 80F       0.038700
     51 H3          -7.8740   -24.0910   -27.4020 h1         1 80F       0.038700
     52 H4          -9.8180   -24.1830   -28.9980 h1         1 80F       0.109700
     53 H5         -10.6680   -26.5120   -27.7900 h1         1 80F       0.084700
     54 H6         -11.7520   -25.4650   -29.5650 ho         1 80F       0.523000
     55 H7          -8.6140   -27.6570   -28.2830 h1         1 80F       0.052700
     56 H8         -10.1280   -29.0900   -29.1310 ho         1 80F       0.499000
     57 H9          -8.7720   -26.6310   -31.1460 h2         1 80F       0.106700
     58 H10         -6.1160   -26.7300   -28.3950 h5         1 80F       0.100800
     59 H11         -2.7470   -29.7900   -32.5730 hn         1 80F       0.497000
     60 H12         -2.7530   -29.1130   -30.9850 hn         1 80F       0.497000
     61 H13         -6.7780   -28.9750   -34.3510 h5         1 80F       0.026100
     62 H15         -9.8180   -19.3480   -30.2240 h1         1 80F       0.015200
     63 H16        -10.1320   -21.0800   -30.1900 h1         1 80F       0.015200
     64 H17         -8.0690   -20.5500   -31.3580 h1         1 80F       0.037700
     65 H18         -8.3290   -22.6170   -29.5370 h1         1 80F       0.071700
     66 H19         -6.3740   -23.3210   -30.5300 ho         1 80F       0.520000
     67 H20         -7.3830   -21.3880   -27.7530 h1         1 80F       0.132700
     68 H21         -5.4030   -22.2600   -27.3540 ho         1 80F       0.563000
     69 H22         -5.2410   -20.3090   -29.6340 h2         1 80F       0.046700
     70 H23         -7.6940   -19.0300   -27.1940 h4         1 80F       0.240000
     71 H24         -4.5040   -18.7970   -24.3700 h1         1 80F       0.078700
     72 H25         -2.9340   -18.5670   -26.2850 ha         1 80F       0.168000
     73 H27         -3.8310   -18.9310   -28.5740 h4         1 80F       0.163000
     74 H30         -6.0470   -23.4910   -24.2570 h1         1 80F       0.074700
     75 H31         -6.7650   -24.1930   -22.1980 hn         1 80F       0.365000
     76 H32         -6.0860   -22.9630   -21.4160 hn         1 80F       0.365000
     77 H34         -5.2760   -20.9330   -22.7940 h1         1 80F       0.068700
     78 H35         -6.6460   -21.1630   -23.8990 h1         1 80F       0.068700
     79 H36         -9.0460   -18.2950   -23.9170 hn         1 80F       0.339500
     80 H37         -8.9260   -19.2060   -25.3570 hn         1 80F       0.339500
     81 CB          -5.6300   -21.4830   -23.6700 c3         1 80F       0.121600
     82 OXT         -3.7500   -23.2600   -21.9670 o          1 80F      -0.753500
@<TRIPOS>BOND
     1     1     2 1   
     2     1     3 1   
     3     1     4 1   
     4     1    23 1   
     5     4     5 1   
     6     5     6 1   
     7     5    50 1   
     8     5    51 1   
     9     6     7 1   
    10     6     8 1   
    11     6    52 1   
    12     7    12 1   
    13     8     9 1   
    14     8    10 1   
    15     8    53 1   
    16     9    54 1   
    17    10    11 1   
    18    10    12 1   
    19    10    55 1   
    20    11    56 1   
    21    12    13 1   
    22    12    57 1   
    23    13    14 1   
    24    13    22 1   
    25    14    15 2   
    26    14    58 1   
    27    15    16 1   
    28    16    17 ar  
    29    16    22 ar  
    30    17    18 1   
    31    17    19 ar  
    32    18    59 1   
    33    18    60 1   
    34    19    20 ar  
    35    20    21 ar  
    36    20    61 1   
    37    21    22 ar  
    38    23    24 1   
    39    24    25 1   
    40    24    26 1   
    41    24    27 1   
    42    27    28 1   
    43    28    29 1   
    44    28    62 1   
    45    28    63 1   
    46    29    30 1   
    47    29    31 1   
    48    29    64 1   
    49    30    35 1   
    50    31    32 1   
    51    31    33 1   
    52    31    65 1   
    53    32    66 1   
    54    33    34 1   
    55    33    35 1   
    56    33    67 1   
    57    34    68 1   
    58    35    36 1   
    59    35    69 1   
    60    36    37 1   
    61    36    43 1   
    62    37    38 2   
    63    37    70 1   
    64    38    39 1   
    65    38    41 1   
    66    39    40 2   
    67    39    49 1   
    68    41    42 1   
    69    41    48 1   
    70    41    71 1   
    71    42    43 2   
    72    42    72 1   
    73    43    73 1   
    74    44    45 1   
    75    44    46 1   
    76    44    82 1   
    77    46    47 1   
    78    46    74 1   
    79    46    81 1   
    80    47    75 1   
    81    47    76 1   
    82    48    81 1   
    83    49    79 1   
    84    49    80 1   
    85    77    81 1   
    86    78    81 1   
@<TRIPOS>SUBSTRUCTURE
     1 80F         1 TEMP              0 ****  ****    0 ROOT
