@<TRIPOS>MOLECULE
80G
   24    25     1     0     0
SMALL
No Charge or Current Charge


@<TRIPOS>ATOM
      1 C1           0.1460     0.1560     0.0270 ca         1 80G      -0.007000
      2 C2          -0.6380     1.3220    -0.1070 ca         1 80G      -0.103500
      3 C3          -2.0380     1.2600     0.0090 ca         1 80G      -0.096000
      4 C4          -2.6790     0.0330     0.2590 ca         1 80G      -0.084300
      5 C5          -1.9020    -1.1330     0.3880 ca         1 80G      -0.096000
      6 C6          -0.5020    -1.0720     0.2700 ca         1 80G      -0.103500
      7 C7           1.6070     0.2010    -0.0980 cc         1 80G      -0.153000
      8 C9           4.0700    -0.1190    -0.4070 cc         1 80G      -0.243000
      9 C10          3.7360     1.1240     0.0730 cd         1 80G      -0.131000
     10 C11          2.3380     1.3100     0.2550 cd         1 80G      -0.127000
     11 C12         -4.1950    -0.0310     0.3940 c3         1 80G       0.197100
     12 N13         -4.8510    -0.1600    -0.9210 n8         1 80G      -0.998200
     13 S8           2.6370    -1.1200    -0.6430 ss         1 80G       0.198000
     14 H2          -0.1700     2.2800    -0.3170 ha         1 80G       0.115500
     15 H3          -2.6260     2.1690    -0.1000 ha         1 80G       0.119000
     16 H5          -2.3820    -2.0900     0.5810 ha         1 80G       0.119000
     17 H6           0.0780    -1.9850     0.3790 ha         1 80G       0.115500
     18 H9           5.0480    -0.5260    -0.6340 h4         1 80G       0.149000
     19 H10          4.4710     1.8910     0.2980 ha         1 80G       0.133000
     20 H11          1.9090     2.2290     0.6420 ha         1 80G       0.135000
     21 H12         -4.4780    -0.8910     1.0170 h1         1 80G       0.034700
     22 H12A        -4.5640     0.8800     0.8860 h1         1 80G       0.034700
     23 HN13        -4.5480    -1.0400    -1.3520 hn         1 80G       0.396500
     24 HN1A        -5.8600    -0.2930    -0.7770 hn         1 80G       0.396500
@<TRIPOS>BOND
     1     1     2 ar  
     2     1     6 ar  
     3     1     7 1   
     4     2     3 ar  
     5     2    14 1   
     6     3     4 ar  
     7     3    15 1   
     8     4     5 ar  
     9     4    11 1   
    10     5     6 ar  
    11     5    16 1   
    12     6    17 1   
    13     7    10 2   
    14     7    13 1   
    15     8     9 2   
    16     8    13 1   
    17     8    18 1   
    18     9    10 1   
    19     9    19 1   
    20    10    20 1   
    21    11    12 1   
    22    11    21 1   
    23    11    22 1   
    24    12    23 1   
    25    12    24 1   
@<TRIPOS>SUBSTRUCTURE
     1 80G         1 TEMP              0 ****  ****    0 ROOT
