@<TRIPOS>MOLECULE
80G
   24    25     1     0     0
SMALL
bcc


@<TRIPOS>ATOM
      1 C1           0.1400     0.1190     0.0590 ca         1 80G      -0.007000
      2 C2          -0.7020     1.1930    -0.2470 ca         1 80G      -0.121500
      3 C3          -2.0770     1.0660    -0.1600 ca         1 80G      -0.114000
      4 C4          -2.6650    -0.1360     0.2320 ca         1 80G      -0.084300
      5 C5          -1.8270    -1.2080     0.5230 ca         1 80G      -0.114000
      6 C6          -0.4480    -1.0850     0.4450 ca         1 80G      -0.121500
      7 C7           1.5920     0.2710    -0.0250 cc         1 80G      -0.008100
      8 C9           4.0300    -0.1190    -0.2920 cc         1 80G      -0.116100
      9 C10          3.7360     1.1760     0.0060 cd         1 80G      -0.149000
     10 C11          2.3430     1.4000     0.1580 cd         1 80G      -0.145000
     11 C12         -4.1600    -0.2690     0.3590 c3         1 80G       0.197100
     12 N13         -4.8530     0.3400    -0.7640 n8         1 80G      -0.887800
     13 S8           2.6120    -1.0750    -0.3950 ss         1 80G      -0.091800
     14 H2          -0.2780     2.1330    -0.5750 ha         1 80G       0.133500
     15 H3          -2.7060     1.9100    -0.4120 ha         1 80G       0.137000
     16 H5          -2.2550    -2.1560     0.8240 ha         1 80G       0.137000
     17 H6           0.1700    -1.9380     0.7020 ha         1 80G       0.133500
     18 H9           4.9990    -0.5620    -0.4600 h4         1 80G       0.167000
     19 H10          4.4870     1.9450     0.1220 ha         1 80G       0.151000
     20 H11          1.9170     2.3600     0.4170 ha         1 80G       0.153000
     21 H12         -4.4050    -1.3270     0.5160 h1         1 80G       0.034700
     22 H12A        -4.4800     0.2490     1.2680 h1         1 80G       0.034700
     23 HN13        -4.7130    -0.2240    -1.5920 hn         1 80G       0.341300
     24 HN1A        -5.8490     0.3330    -0.5850 hn         1 80G       0.341300
@<TRIPOS>BOND
     1     1     2 ar  
     2     1     6 ar  
     3     1     7 1   
     4     2     3 ar  
     5     2    14 1   
     6     3     4 ar  
     7     3    15 1   
     8     4     5 ar  
     9     4    11 1   
    10     5     6 ar  
    11     5    16 1   
    12     6    17 1   
    13     7    10 2   
    14     7    13 1   
    15     8     9 2   
    16     8    13 1   
    17     8    18 1   
    18     9    10 1   
    19     9    19 1   
    20    10    20 1   
    21    11    12 1   
    22    11    21 1   
    23    11    22 1   
    24    12    23 1   
    25    12    24 1   
@<TRIPOS>SUBSTRUCTURE
     1 80G         1 TEMP              0 ****  ****    0 ROOT
