@<TRIPOS>MOLECULE
80H
   48    51     1     0     0
SMALL
No Charge or Current Charge


@<TRIPOS>ATOM
      1 C18         22.9260     9.8650    28.3690 ca         1 80H      -0.292000
      2 C13         29.4220    12.8260    25.9530 ca         1 80H      -0.038000
      3 C16         30.1440    10.0900    26.0070 ca         1 80H       0.170000
      4 C12         28.5050    11.8410    26.3520 ca         1 80H       0.083400
      5 C8          23.3640    11.1860    28.2420 ca         1 80H       0.382900
      6 C14         30.7240    12.4280    25.5760 ca         1 80H      -0.117000
      7 C7          22.8870    13.6410    28.8550 c3         1 80H       0.291100
      8 C6          23.5690    14.3380    27.6770 ca         1 80H      -0.097300
      9 C5          23.1540    14.0820    26.3520 ca         1 80H      -0.062000
     10 C4          23.7820    14.7750    25.3070 ca         1 80H      -0.151000
     11 F           30.4610     8.7750    26.0430 f          1 80H      -0.163000
     12 C11         28.8610    10.5240    26.3750 ca         1 80H      -0.115200
     13 N4          27.7830     9.7900    26.7980 na         1 80H      -0.272600
     14 C15         31.0870    11.0610    25.6020 ca         1 80H       0.087000
     15 Cl          32.7180    10.5890    25.1270 cl         1 80H      -0.179000
     16 N5          27.1960    12.0180    26.7550 nc         1 80H      -0.495100
     17 C10         26.7870    10.7570    27.0260 cd         1 80H       0.341800
     18 C9          25.4150    10.4400    27.5020 ca         1 80H       0.170700
     19 N3          24.6030    11.4770    27.8120 nb         1 80H      -0.201000
     20 N6          25.0790     9.1300    27.6070 nb         1 80H      -0.235000
     21 C17         23.8340     8.8480    28.0380 ca         1 80H       0.144900
     22 N2          22.5090    12.2350    28.5650 nu         1 80H      -0.934100
     23 C3          24.7790    15.7130    25.6110 ca         1 80H       0.359900
     24 N1          25.1690    15.9830    26.8750 nb         1 80H      -0.706000
     25 C2          24.5980    15.2900    27.8800 ca         1 80H       0.560900
     26 N           25.0160    15.7010    29.1390 nh         1 80H      -0.735200
     27 C           24.7520    17.0800    29.5830 c3         1 80H       0.192100
     28 S           26.3810    14.9100    29.8280 s6         1 80H       1.205100
     29 O           26.6790    15.5930    31.0920 o          1 80H      -0.519000
     30 O1          26.0910    13.4750    29.8280 o          1 80H      -0.519000
     31 C1          27.7300    15.2170    28.7010 c3         1 80H      -0.373100
     32 H1          21.9260     9.6280    28.7160 ha         1 80H       0.131000
     33 H2          29.1330    13.8740    25.9350 ha         1 80H       0.147000
     34 H3          31.4500    13.1750    25.2640 ha         1 80H       0.131000
     35 H4          23.5380    13.6630    29.7390 h1         1 80H       0.078700
     36 H5          21.9900    14.2200    29.1170 h1         1 80H       0.078700
     37 H6          22.3630    13.3670    26.1380 ha         1 80H       0.122000
     38 H7          23.4950    14.6020    24.2730 ha         1 80H       0.129000
     39 H8          27.7020     8.7890    26.9260 hn         1 80H       0.384000
     40 H10         23.5640     7.7960    28.1180 h4         1 80H       0.024100
     41 H11         21.5760    11.9470    28.8660 hn         1 80H       0.498000
     42 H12         25.2710    16.2750    24.8190 h4         1 80H       0.025100
     43 H13         24.5050    17.1020    30.6530 h1         1 80H       0.051700
     44 H14         25.6260    17.7210    29.4070 h1         1 80H       0.051700
     45 H15         23.8990    17.5040    29.0380 h1         1 80H       0.051700
     46 H16         27.8290    16.3010    28.5920 h1         1 80H       0.103700
     47 H17         28.6300    14.7730    29.1370 h1         1 80H       0.103700
     48 H18         27.4770    14.7420    27.7480 h1         1 80H       0.103700
@<TRIPOS>BOND
     1     1     5 ar  
     2     1    21 ar  
     3     1    32 1   
     4     2     4 ar  
     5     2     6 ar  
     6     2    33 1   
     7     3    11 1   
     8     3    12 ar  
     9     3    14 ar  
    10     4    12 ar  
    11     4    16 1   
    12     5    19 ar  
    13     5    22 1   
    14     6    14 ar  
    15     6    34 1   
    16     7     8 1   
    17     7    22 1   
    18     7    35 1   
    19     7    36 1   
    20     8     9 ar  
    21     8    25 ar  
    22     9    10 ar  
    23     9    37 1   
    24    10    23 ar  
    25    10    38 1   
    26    12    13 1   
    27    13    17 1   
    28    13    39 1   
    29    14    15 1   
    30    16    17 2   
    31    17    18 1   
    32    18    19 ar  
    33    18    20 ar  
    34    20    21 ar  
    35    21    40 1   
    36    22    41 1   
    37    23    24 ar  
    38    23    42 1   
    39    24    25 ar  
    40    25    26 1   
    41    26    27 1   
    42    26    28 1   
    43    27    43 1   
    44    27    44 1   
    45    27    45 1   
    46    28    29 2   
    47    28    30 2   
    48    28    31 1   
    49    31    46 1   
    50    31    47 1   
    51    31    48 1   
@<TRIPOS>SUBSTRUCTURE
     1 80H         1 TEMP              0 ****  ****    0 ROOT
