@<TRIPOS>MOLECULE
80H
   48    51     1     0     0
SMALL
abcg2


@<TRIPOS>ATOM
      1 C18         22.8970     9.9010    27.9120 ca         1 80H      -0.292000
      2 C13         30.0170    11.9470    26.8240 ca         1 80H      -0.038000
      3 C16         30.0320     9.3220    25.7680 ca         1 80H       0.170000
      4 C12         28.8570    11.1680    26.8290 ca         1 80H       0.083400
      5 C8          23.5580    11.1200    28.1760 ca         1 80H       0.382900
      6 C14         31.1640    11.4010    26.2920 ca         1 80H      -0.117000
      7 C7          23.5510    13.4270    28.9910 c3         1 80H       0.291100
      8 C6          23.7320    14.3030    27.7740 ca         1 80H      -0.097300
      9 C5          23.1400    14.0260    26.5490 ca         1 80H      -0.062000
     10 C4          23.3610    14.8690    25.4720 ca         1 80H      -0.151000
     11 F           30.0360     8.0870    25.2690 f          1 80H      -0.163000
     12 C11         28.8740     9.8640    26.3030 ca         1 80H      -0.115200
     13 N4          27.6060     9.3970    26.4590 na         1 80H      -0.272600
     14 C15         31.1700    10.0970    25.7690 ca         1 80H       0.087000
     15 CL          32.6220     9.4380    25.1120 cl         1 80H      -0.179000
     16 N5          27.6040    11.4600    27.2850 nc         1 80H      -0.495100
     17 C10         26.8930    10.3920    27.0480 cd         1 80H       0.341800
     18 C9          25.4670    10.2210    27.3570 ca         1 80H       0.170700
     19 N3          24.8500    11.2640    27.8880 nb         1 80H      -0.201000
     20 N6          24.9500     9.0420    27.0650 nb         1 80H      -0.235000
     21 C17         23.6490     8.9020    27.3530 ca         1 80H       0.144900
     22 N2          22.9150    12.1660    28.7190 nu         1 80H      -0.934100
     23 C3          24.1650    15.9820    25.6560 ca         1 80H       0.359900
     24 N1          24.7180    16.2740    26.8260 nb         1 80H      -0.706000
     25 C2          24.5100    15.4580    27.8430 ca         1 80H       0.560900
     26 N           25.0890    15.8030    29.0970 nh         1 80H      -0.735200
     27 C           24.3230    16.7180    29.9390 c3         1 80H       0.192100
     28 S           26.7480    15.8710    29.1730 s6         1 80H       1.205100
     29 O           27.1100    15.7660    30.5770 o          1 80H      -0.519000
     30 O1          27.2380    14.8790    28.2300 o          1 80H      -0.519000
     31 C1          27.2310    17.4840    28.6040 c3         1 80H      -0.373100
     32 H1          21.8490     9.7630    28.1370 ha         1 80H       0.131000
     33 H2          30.0120    12.9510    27.2250 ha         1 80H       0.147000
     34 H3          32.0810    11.9730    26.2710 ha         1 80H       0.131000
     35 H4          24.5210    13.2610    29.4610 h1         1 80H       0.078700
     36 H5          22.9340    13.9440    29.7280 h1         1 80H       0.078700
     37 H6          22.5160    13.1500    26.4300 ha         1 80H       0.122000
     38 H7          22.9170    14.6680    24.5070 ha         1 80H       0.129000
     39 H8          27.2390     8.4930    26.1980 hn         1 80H       0.384000
     40 H10         23.2010     7.9430    27.1220 h4         1 80H       0.024100
     41 H11         21.9320    12.0740    28.9110 hn         1 80H       0.498000
     42 H12         24.3670    16.6630    24.8380 h4         1 80H       0.025100
     43 H13         24.7240    16.7240    30.9490 h1         1 80H       0.051700
     44 H14         24.3120    17.7380    29.5460 h1         1 80H       0.051700
     45 H15         23.2960    16.3620    29.9950 h1         1 80H       0.051700
     46 H16         26.7870    18.2450    29.2430 h1         1 80H       0.103700
     47 H17         28.3170    17.5440    28.6650 h1         1 80H       0.103700
     48 H18         26.8980    17.6110    27.5780 h1         1 80H       0.103700
@<TRIPOS>BOND
     1     1     5 ar  
     2     1    21 ar  
     3     1    32 1   
     4     2     4 ar  
     5     2     6 ar  
     6     2    33 1   
     7     3    11 1   
     8     3    12 ar  
     9     3    14 ar  
    10     4    12 ar  
    11     4    16 1   
    12     5    19 ar  
    13     5    22 1   
    14     6    14 ar  
    15     6    34 1   
    16     7     8 1   
    17     7    22 1   
    18     7    35 1   
    19     7    36 1   
    20     8     9 ar  
    21     8    25 ar  
    22     9    10 ar  
    23     9    37 1   
    24    10    23 ar  
    25    10    38 1   
    26    12    13 1   
    27    13    17 1   
    28    13    39 1   
    29    14    15 1   
    30    16    17 2   
    31    17    18 1   
    32    18    19 ar  
    33    18    20 ar  
    34    20    21 ar  
    35    21    40 1   
    36    22    41 1   
    37    23    24 ar  
    38    23    42 1   
    39    24    25 ar  
    40    25    26 1   
    41    26    27 1   
    42    26    28 1   
    43    27    43 1   
    44    27    44 1   
    45    27    45 1   
    46    28    29 2   
    47    28    30 2   
    48    28    31 1   
    49    31    46 1   
    50    31    47 1   
    51    31    48 1   
@<TRIPOS>SUBSTRUCTURE
     1 80H         1 TEMP              0 ****  ****    0 ROOT
