@<TRIPOS>MOLECULE
80K
   60    61     1     0     0
SMALL
No Charge or Current Charge


@<TRIPOS>ATOM
      1 C01         -8.7980    -1.4080    -0.2180 c3         1 80K      -0.109100
      2 C02         -8.3470     0.0430    -0.5270 c3         1 80K       0.225000
      3 C03         -7.7350     0.1990    -1.9440 c3         1 80K      -0.109100
      4 C04         -9.5380     1.0120    -0.3590 c3         1 80K      -0.109100
      5 C06         -6.1790    -0.1340     0.6400 c          1 80K       0.647100
      6 C09         -4.1730     0.1730     2.1150 c3         1 80K       0.132000
      7 C10         -3.0770     0.5710     1.1060 c3         1 80K       0.015600
      8 C12         -0.3480     0.7420     0.3460 c3         1 80K       0.049600
      9 C13          1.1660     0.5260     0.6040 c3         1 80K       0.155500
     10 C15          2.7800    -1.4600     0.8450 ca         1 80K       0.306000
     11 C16          3.8020    -0.8120     1.5620 ca         1 80K      -0.171500
     12 C17          5.0990    -1.3520     1.5940 ca         1 80K      -0.071500
     13 C18          5.3750    -2.5490     0.9110 ca         1 80K      -0.152000
     14 C19          4.3560    -3.2040     0.2010 ca         1 80K      -0.071500
     15 C20          3.0600    -2.6590     0.1720 ca         1 80K      -0.171500
     16 C21          2.0130     1.1810    -0.5420 c          1 80K       0.563100
     17 C24          4.0890     2.5320    -0.9910 c3         1 80K       0.153300
     18 C25          5.3130     1.6310    -0.9840 ca         1 80K      -0.170300
     19 C26          5.2960     0.3870    -1.6400 ca         1 80K      -0.060000
     20 C27          6.4480    -0.4110    -1.5830 ca         1 80K      -0.165000
     21 C28          7.5700     0.0540    -0.8760 ca         1 80K       0.342900
     22 C30          6.4830     2.0180    -0.3010 ca         1 80K       0.350900
     23 N08         -5.5180     0.5130     1.6440 ns         1 80K      -0.506900
     24 N14          1.4930    -0.9260     0.7890 nu         1 80K      -0.921200
     25 N23          3.0520     1.9870    -0.1180 ns         1 80K      -0.506900
     26 N29          7.5970     1.2500    -0.2440 nb         1 80K      -0.665000
     27 O05         -7.3890     0.4770     0.4670 os         1 80K      -0.482100
     28 O07         -5.7380    -1.0910     0.0250 o          1 80K      -0.544000
     29 O22          1.7860     0.9970    -1.7330 o          1 80K      -0.590100
     30 S11         -1.3980     0.1630     1.7650 ss         1 80K      -0.395000
     31 H1          -9.0670    -1.5150     0.8400 hc         1 80K       0.049367
     32 H2          -9.6780    -1.6700    -0.8180 hc         1 80K       0.049367
     33 H3          -8.0180    -2.1400    -0.4520 hc         1 80K       0.049367
     34 H4          -8.5130     0.0910    -2.7090 hc         1 80K       0.049367
     35 H5          -7.2780     1.1880    -2.0630 hc         1 80K       0.049367
     36 H6          -6.9730    -0.5610    -2.1480 hc         1 80K       0.049367
     37 H7          -9.9550     0.9460     0.6530 hc         1 80K       0.049367
     38 H8          -9.2240     2.0490    -0.5320 hc         1 80K       0.049367
     39 H9         -10.3370     0.7750    -1.0710 hc         1 80K       0.049367
     40 H10         -4.1230    -0.9080     2.3030 h1         1 80K       0.069700
     41 H11         -3.9940     0.6900     3.0670 h1         1 80K       0.069700
     42 H12         -3.2310     0.0350     0.1600 h1         1 80K       0.066200
     43 H13         -3.1340     1.6490     0.9080 h1         1 80K       0.066200
     44 H14         -0.5360     1.8120     0.1870 h1         1 80K       0.072700
     45 H15         -0.6470     0.2070    -0.5650 h1         1 80K       0.072700
     46 H16          1.4170     1.0670     1.5260 h1         1 80K       0.077700
     47 H17          3.5930     0.1070     2.1010 ha         1 80K       0.108000
     48 H18          5.8880    -0.8450     2.1460 ha         1 80K       0.108000
     49 H19          6.3790    -2.9680     0.9340 ha         1 80K       0.113000
     50 H20          4.5700    -4.1310    -0.3270 ha         1 80K       0.108000
     51 H21          2.2770    -3.1670    -0.3840 ha         1 80K       0.108000
     52 H22          4.3570     3.5360    -0.6360 h1         1 80K       0.063200
     53 H23          3.7060     2.6340    -2.0160 h1         1 80K       0.063200
     54 H24          4.4110     0.0450    -2.1740 ha         1 80K       0.122000
     55 H25          6.4770    -1.3810    -2.0700 ha         1 80K       0.128000
     56 H26          8.4750    -0.5490    -0.8150 h4         1 80K       0.022100
     57 H27          6.5320     2.9720     0.2230 h4         1 80K       0.023100
     58 H28         -6.0110     1.2890     2.0670 hn         1 80K       0.323500
     59 H29          0.7840    -1.5790     0.4530 hn         1 80K       0.480000
     60 H30          3.1700     2.0940     0.8830 hn         1 80K       0.317500
@<TRIPOS>BOND
     1     1     2 1   
     2     1    31 1   
     3     1    32 1   
     4     1    33 1   
     5     2     3 1   
     6     2     4 1   
     7     2    27 1   
     8     3    34 1   
     9     3    35 1   
    10     3    36 1   
    11     4    37 1   
    12     4    38 1   
    13     4    39 1   
    14     5    23 1   
    15     5    27 1   
    16     5    28 2   
    17     6     7 1   
    18     6    23 1   
    19     6    40 1   
    20     6    41 1   
    21     7    30 1   
    22     7    42 1   
    23     7    43 1   
    24     8     9 1   
    25     8    30 1   
    26     8    44 1   
    27     8    45 1   
    28     9    16 1   
    29     9    24 1   
    30     9    46 1   
    31    10    11 ar  
    32    10    15 ar  
    33    10    24 1   
    34    11    12 ar  
    35    11    47 1   
    36    12    13 ar  
    37    12    48 1   
    38    13    14 ar  
    39    13    49 1   
    40    14    15 ar  
    41    14    50 1   
    42    15    51 1   
    43    16    25 1   
    44    16    29 2   
    45    17    18 1   
    46    17    25 1   
    47    17    52 1   
    48    17    53 1   
    49    18    19 ar  
    50    18    22 ar  
    51    19    20 ar  
    52    19    54 1   
    53    20    21 ar  
    54    20    55 1   
    55    21    26 ar  
    56    21    56 1   
    57    22    26 ar  
    58    22    57 1   
    59    23    58 1   
    60    24    59 1   
    61    25    60 1   
@<TRIPOS>SUBSTRUCTURE
     1 80K         1 TEMP              0 ****  ****    0 ROOT
