@<TRIPOS>MOLECULE
80K
   60    61     1     0     0
SMALL
bcc


@<TRIPOS>ATOM
      1 C01         -8.5360     0.3580    -0.0440 c3         1 80K      -0.109100
      2 C02         -7.5100     1.4830    -0.1130 c3         1 80K       0.201800
      3 C03         -7.0370     1.7260    -1.5410 c3         1 80K      -0.109100
      4 C04         -8.1110     2.7630     0.4550 c3         1 80K      -0.109100
      5 C06         -5.5690     0.1890     0.6290 c          1 80K       0.763100
      6 C09         -3.5380    -0.7410     1.6240 c3         1 80K       0.132000
      7 C10         -2.4000    -0.3370     0.6930 c3         1 80K      -0.032300
      8 C12          0.1430    -0.7780    -0.2950 c3         1 80K       0.001700
      9 C13          1.5410    -1.3080     0.0010 c3         1 80K       0.155500
     10 C15          2.6690    -3.4790     0.2260 ca         1 80K       0.167600
     11 C16          3.7300    -2.9640     0.9780 ca         1 80K      -0.189500
     12 C17          4.8160    -3.7660     1.3010 ca         1 80K      -0.089500
     13 C18          4.8820    -5.0870     0.8850 ca         1 80K      -0.170000
     14 C19          3.8320    -5.6010     0.1310 ca         1 80K      -0.089500
     15 C20          2.7420    -4.8150    -0.1950 ca         1 80K      -0.189500
     16 C21          2.5200    -0.6690    -0.9960 c          1 80K       0.630100
     17 C24          4.0540     1.2060    -1.3690 c3         1 80K       0.153300
     18 C25          4.2200     2.5870    -0.8050 ca         1 80K      -0.235600
     19 C26          5.3540     2.9620    -0.1000 ca         1 80K      -0.078000
     20 C27          5.4410     4.2490     0.4080 ca         1 80K      -0.248300
     21 C28          4.3810     5.1160     0.1920 ca         1 80K       0.408200
     22 C30          3.2170     3.5410    -0.9620 ca         1 80K       0.416200
     23 N08         -4.6260     0.2040     1.5960 ns         1 80K      -0.573900
     24 N14          1.5400    -2.7410    -0.0790 nu         1 80K      -0.727600
     25 N23          3.1260     0.4420    -0.5570 ns         1 80K      -0.573900
     26 N29          3.2860     4.7730    -0.4800 nb         1 80K      -0.665000
     27 O05         -6.3900     1.2280     0.7750 os         1 80K      -0.458900
     28 O07         -5.6470    -0.6650    -0.2310 o          1 80K      -0.593000
     29 O22          2.6840    -1.1350    -2.1110 o          1 80K      -0.590100
     30 S11         -1.0470    -1.5390     0.8460 ss         1 80K      -0.299200
     31 H1          -8.8150     0.1430     0.9880 hc         1 80K       0.049367
     32 H2          -9.4380     0.6690    -0.5720 hc         1 80K       0.049367
     33 H3          -8.1800    -0.5590    -0.5080 hc         1 80K       0.049367
     34 H4          -7.8750     2.0930    -2.1350 hc         1 80K       0.049367
     35 H5          -6.2540     2.4860    -1.5720 hc         1 80K       0.049367
     36 H6          -6.6630     0.8220    -2.0160 hc         1 80K       0.049367
     37 H7          -8.4410     2.6260     1.4850 hc         1 80K       0.049367
     38 H8          -7.3930     3.5840     0.4300 hc         1 80K       0.049367
     39 H9          -8.9770     3.0580    -0.1370 hc         1 80K       0.049367
     40 H10         -3.9090    -1.7320     1.3610 h1         1 80K       0.069700
     41 H11         -3.1760    -0.7970     2.6500 h1         1 80K       0.069700
     42 H12         -2.7500    -0.3060    -0.3400 h1         1 80K       0.066200
     43 H13         -2.0300     0.6550     0.9620 h1         1 80K       0.066200
     44 H14          0.1260     0.3040    -0.1530 h1         1 80K       0.072700
     45 H15         -0.1410    -0.9880    -1.3290 h1         1 80K       0.072700
     46 H16          1.7970    -1.0040     1.0210 h1         1 80K       0.077700
     47 H17          3.7230    -1.9390     1.3250 ha         1 80K       0.126000
     48 H18          5.6230    -3.3410     1.8850 ha         1 80K       0.126000
     49 H19          5.7320    -5.7050     1.1410 ha         1 80K       0.131000
     50 H20          3.8610    -6.6290    -0.2100 ha         1 80K       0.126000
     51 H21          1.9320    -5.2330    -0.7810 ha         1 80K       0.126000
     52 H22          3.6670     1.2590    -2.3880 h1         1 80K       0.063200
     53 H23          5.0240     0.7050    -1.4210 h1         1 80K       0.063200
     54 H24          6.1620     2.2550     0.0500 ha         1 80K       0.140000
     55 H25          6.3110     4.5770     0.9610 ha         1 80K       0.146000
     56 H26          4.4170     6.1290     0.5760 h4         1 80K       0.022100
     57 H27          2.3150     3.2860    -1.5120 h4         1 80K       0.023100
     58 H28         -4.5820     0.9960     2.2160 hn         1 80K       0.323500
     59 H29          1.0100    -3.1090    -0.8550 hn         1 80K       0.424800
     60 H30          3.0130     0.7110     0.4080 hn         1 80K       0.317500
@<TRIPOS>BOND
     1     1     2 1   
     2     1    31 1   
     3     1    32 1   
     4     1    33 1   
     5     2     3 1   
     6     2     4 1   
     7     2    27 1   
     8     3    34 1   
     9     3    35 1   
    10     3    36 1   
    11     4    37 1   
    12     4    38 1   
    13     4    39 1   
    14     5    23 1   
    15     5    27 1   
    16     5    28 2   
    17     6     7 1   
    18     6    23 1   
    19     6    40 1   
    20     6    41 1   
    21     7    30 1   
    22     7    42 1   
    23     7    43 1   
    24     8     9 1   
    25     8    30 1   
    26     8    44 1   
    27     8    45 1   
    28     9    16 1   
    29     9    24 1   
    30     9    46 1   
    31    10    11 ar  
    32    10    15 ar  
    33    10    24 1   
    34    11    12 ar  
    35    11    47 1   
    36    12    13 ar  
    37    12    48 1   
    38    13    14 ar  
    39    13    49 1   
    40    14    15 ar  
    41    14    50 1   
    42    15    51 1   
    43    16    25 1   
    44    16    29 2   
    45    17    18 1   
    46    17    25 1   
    47    17    52 1   
    48    17    53 1   
    49    18    19 ar  
    50    18    22 ar  
    51    19    20 ar  
    52    19    54 1   
    53    20    21 ar  
    54    20    55 1   
    55    21    26 ar  
    56    21    56 1   
    57    22    26 ar  
    58    22    57 1   
    59    23    58 1   
    60    24    59 1   
    61    25    60 1   
@<TRIPOS>SUBSTRUCTURE
     1 80K         1 TEMP              0 ****  ****    0 ROOT
