@<TRIPOS>MOLECULE
80L
   40    42     1     0     0
SMALL
abcg2


@<TRIPOS>ATOM
      1 C4          -1.0490     0.1360    -0.1290 ca         1 80L      -0.316000
      2 C5          -3.7290     0.7300     0.1720 ca         1 80L       0.051000
      3 C6           3.5930     2.1860    -0.3760 ca         1 80L      -0.001400
      4 C7           2.9200     1.5800     0.6920 ca         1 80L       0.030600
      5 C8           0.8510     2.3570    -0.1660 ca         1 80L       0.280000
      6 C10         -1.4360     1.4660    -0.0290 ca         1 80L       0.430000
      7 C13          5.1350     1.1720     0.9380 c          1 80L       0.600000
      8 C15          0.0660    -4.0390    -0.4420 c3         1 80L      -0.236400
      9 C1           2.9050     2.8890    -1.3440 ca         1 80L      -0.099000
     10 C2           1.5200     2.9560    -1.2310 ca         1 80L      -0.135000
     11 C3           1.5510     1.6670     0.8270 ca         1 80L      -0.116000
     12 C9          -1.9500    -0.9410    -0.0690 ca         1 80L       0.466000
     13 C11         -3.3340    -0.6140     0.0890 ca         1 80L      -0.360200
     14 C12         -2.8230     1.7420     0.1180 ca         1 80L      -0.044000
     15 C14          1.5180    -4.5170    -0.6300 c          1 80L       0.725000
     16 C16         -0.0870    -2.5340    -0.3370 c3         1 80L       0.222800
     17 N17          4.9320     1.9190    -0.1960 ns         1 80L      -0.504600
     18 N18          3.8820     0.9780     1.4690 ns         1 80L      -0.496600
     19 N19         -0.5500     2.4890    -0.0740 nu         1 80L      -0.987000
     20 N20         -1.4850    -2.1920    -0.1680 nu         1 80L      -0.908200
     21 N21         -4.3540    -1.5870     0.1590 no         1 80L       0.719200
     22 O22         -5.5110    -1.2310     0.2950 o          1 80L      -0.451500
     23 O23          6.1940     0.7680     1.3790 o          1 80L      -0.562000
     24 O24          2.4110    -3.6480    -0.6510 o          1 80L      -0.728500
     25 O25         -4.0570    -2.7750     0.0820 o          1 80L      -0.451500
     26 O26          1.6720    -5.7490    -0.7440 o          1 80L      -0.728500
     27 CL1         -3.3620     3.3870     0.2320 cl         1 80L      -0.228000
     28 H1          -0.0020    -0.0760    -0.2770 ha         1 80L       0.148000
     29 H2          -4.7770     0.9650     0.2870 ha         1 80L       0.148000
     30 H3          -0.5360    -4.4140    -1.2770 hc         1 80L       0.033200
     31 H4          -0.3400    -4.5170     0.4560 hc         1 80L       0.033200
     32 H5           3.4170     3.3610    -2.1710 ha         1 80L       0.120000
     33 H6           0.9490     3.4800    -1.9870 ha         1 80L       0.118000
     34 H7           1.0380     1.2220     1.6690 ha         1 80L       0.140000
     35 H8           0.4980    -2.1560     0.5070 h1         1 80L       0.057200
     36 H9           0.3090    -2.0540    -1.2370 h1         1 80L       0.057200
     37 H10          5.6800     2.2070    -0.8070 hn         1 80L       0.464000
     38 H11          3.7180     0.4540     2.3140 hn         1 80L       0.475000
     39 H12         -0.9220     3.4170    -0.2020 hn         1 80L       0.504000
     40 H13         -2.1600    -2.9360    -0.1350 hn         1 80L       0.530000
@<TRIPOS>BOND
     1     1     6 ar  
     2     1    12 ar  
     3     1    28 1   
     4     2    13 ar  
     5     2    14 ar  
     6     2    29 1   
     7     3     4 ar  
     8     3     9 ar  
     9     3    17 1   
    10     4    11 ar  
    11     4    18 1   
    12     5    10 ar  
    13     5    11 ar  
    14     5    19 1   
    15     6    14 ar  
    16     6    19 1   
    17     7    17 1   
    18     7    18 1   
    19     7    23 2   
    20     8    15 1   
    21     8    16 1   
    22     8    30 1   
    23     8    31 1   
    24     9    10 ar  
    25     9    32 1   
    26    10    33 1   
    27    11    34 1   
    28    12    13 ar  
    29    12    20 1   
    30    13    21 1   
    31    14    27 1   
    32    15    24 1   
    33    15    26 1   
    34    16    20 1   
    35    16    35 1   
    36    16    36 1   
    37    17    37 1   
    38    18    38 1   
    39    19    39 1   
    40    20    40 1   
    41    21    22 1   
    42    21    25 1   
@<TRIPOS>SUBSTRUCTURE
     1 80L         1 TEMP              0 ****  ****    0 ROOT
