@<TRIPOS>MOLECULE
80L
   40    42     1     0     0
SMALL
No Charge or Current Charge


@<TRIPOS>ATOM
      1 C4          -1.0330     0.0320    -0.4610 ca         1 80L      -0.316000
      2 C5          -3.6470     0.6630     0.3050 ca         1 80L       0.051000
      3 C6           3.7180     2.6760    -0.3600 ca         1 80L      -0.001400
      4 C7           3.0900     1.6680     0.3410 ca         1 80L       0.030600
      5 C8           0.9440     2.4440    -0.4100 ca         1 80L       0.280000
      6 C10         -1.3860     1.3650    -0.2490 ca         1 80L       0.430000
      7 C13          5.3710     1.4440     0.7010 c          1 80L       0.600000
      8 C15         -0.2910    -4.3890    -0.3430 c3         1 80L      -0.236400
      9 C1           3.0060     3.6170    -1.1050 ca         1 80L      -0.099000
     10 C2           1.5970     3.4900    -1.1160 ca         1 80L      -0.135000
     11 C3           1.7020     1.5180     0.3480 ca         1 80L      -0.116000
     12 C9          -1.9640    -0.9930    -0.2780 ca         1 80L       0.466000
     13 C11         -3.2820    -0.6880     0.1070 ca         1 80L      -0.360200
     14 C12         -2.7070     1.6860     0.1210 ca         1 80L      -0.044000
     15 C14          1.0630    -4.9640     0.0700 c          1 80L       0.725000
     16 C16         -0.2610    -2.8780    -0.0970 c3         1 80L       0.222800
     17 N17          5.0890     2.5030    -0.1170 ns         1 80L      -0.504600
     18 N18          4.1230     0.9510     0.9660 ns         1 80L      -0.496600
     19 N19         -0.4510     2.3840    -0.4470 nu         1 80L      -0.987000
     20 N20         -1.5510    -2.3000    -0.4870 nu         1 80L      -0.908200
     21 N21         -4.3090    -1.7380     0.3320 no         1 80L       0.719200
     22 O22         -5.2300    -1.4810     1.1160 o          1 80L      -0.451500
     23 O23          6.4510     1.0450     1.0920 o          1 80L      -0.562000
     24 O24          1.2100    -5.3090     1.2320 o          1 80L      -0.728500
     25 O25         -4.2540    -2.7790    -0.3340 o          1 80L      -0.451500
     26 O26          1.9510    -5.0010    -0.7670 o          1 80L      -0.728500
     27 Cl1         -3.2110     3.3660     0.3630 cl         1 80L      -0.228000
     28 H1          -0.0340    -0.2090    -0.8000 ha         1 80L       0.148000
     29 H2          -4.6620     0.9310     0.5950 ha         1 80L       0.148000
     30 H3          -0.4570    -4.5260    -1.4190 hc         1 80L       0.033200
     31 H4          -1.0910    -4.7910     0.2910 hc         1 80L       0.033200
     32 H5           3.5100     4.4130    -1.6480 ha         1 80L       0.120000
     33 H6           1.0060     4.2030    -1.6840 ha         1 80L       0.118000
     34 H7           1.2300     0.7340     0.9310 ha         1 80L       0.140000
     35 H8          -0.0660    -2.6840     0.9680 h1         1 80L       0.057200
     36 H9           0.5550    -2.4270    -0.6800 h1         1 80L       0.057200
     37 H10          5.8180     3.0980    -0.4990 hn         1 80L       0.464000
     38 H11          3.9800     0.1440     1.5640 hn         1 80L       0.475000
     39 H12         -0.8990     3.2890    -0.5980 hn         1 80L       0.504000
     40 H13         -2.3340    -2.9570    -0.5380 hn         1 80L       0.530000
@<TRIPOS>BOND
     1     1     6 ar  
     2     1    12 ar  
     3     1    28 1   
     4     2    13 ar  
     5     2    14 ar  
     6     2    29 1   
     7     3     4 ar  
     8     3     9 ar  
     9     3    17 1   
    10     4    11 ar  
    11     4    18 1   
    12     5    10 ar  
    13     5    11 ar  
    14     5    19 1   
    15     6    14 ar  
    16     6    19 1   
    17     7    17 1   
    18     7    18 1   
    19     7    23 2   
    20     8    15 1   
    21     8    16 1   
    22     8    30 1   
    23     8    31 1   
    24     9    10 ar  
    25     9    32 1   
    26    10    33 1   
    27    11    34 1   
    28    12    13 ar  
    29    12    20 1   
    30    13    21 1   
    31    14    27 1   
    32    15    24 1   
    33    15    26 1   
    34    16    20 1   
    35    16    35 1   
    36    16    36 1   
    37    17    37 1   
    38    18    38 1   
    39    19    39 1   
    40    20    40 1   
    41    21    22 1   
    42    21    25 1   
@<TRIPOS>SUBSTRUCTURE
     1 80L         1 TEMP              0 ****  ****    0 ROOT
