@<TRIPOS>MOLECULE
80M
   60    64     1     0     0
SMALL
No Charge or Current Charge


@<TRIPOS>ATOM
      1 C01         10.9110     1.0840     3.1580 ca         1 80M       0.073875
      2 C02          9.8170     1.9520     2.9780 ca         1 80M      -0.261000
      3 C03          9.8160     3.2130     3.6040 ca         1 80M       0.073875
      4 C04         10.9000     3.6040     4.4100 ca         1 80M      -0.214500
      5 C05         11.9880     2.7310     4.5860 ca         1 80M       0.212100
      6 C06         12.0000     1.4690     3.9620 ca         1 80M      -0.214500
      7 C08         12.5920    -1.0160     4.9900 ca         1 80M      -0.214500
      8 C09         12.2550    -2.1580     4.2400 ca         1 80M       0.073875
      9 C10         11.6560    -3.2690     4.8630 ca         1 80M      -0.261000
     10 C11         11.4030    -3.2370     6.2460 ca         1 80M       0.073875
     11 C12         11.7370    -2.1000     7.0040 ca         1 80M      -0.214500
     12 C13         12.3320    -0.9910     6.3760 ca         1 80M       0.212100
     13 C16         10.1870    -0.8420     8.8590 ca         1 80M      -0.214500
     14 C17         10.4720     0.4240     9.3990 ca         1 80M       0.212100
     15 C18          9.4680     1.4060     9.4780 ca         1 80M      -0.214500
     16 C19          8.1670     1.1060     9.0280 ca         1 80M       0.073875
     17 C20          7.8730    -0.1630     8.4960 ca         1 80M      -0.261000
     18 C21          8.8860    -1.1340     8.4100 ca         1 80M       0.073875
     19 C27          9.3400     4.0300     8.7310 ca         1 80M      -0.214500
     20 C28         10.2120     4.2020     7.6410 ca         1 80M       0.212100
     21 C29          9.8220     4.9810     6.5350 ca         1 80M      -0.214500
     22 C30          8.5620     5.6050     6.5350 ca         1 80M       0.073875
     23 C31          7.6890     5.4490     7.6280 ca         1 80M      -0.261000
     24 C32          8.0830     4.6620     8.7260 ca         1 80M       0.073875
     25 O14         12.6800     0.0860     7.1300 oh         1 80M      -0.529100
     26 O23          6.3720    -1.6280     6.9780 o          1 80M      -0.692950
     27 O24          5.6920     0.7320     7.4390 o          1 80M      -0.692950
     28 O25          5.5590    -0.9780     9.2400 o          1 80M      -0.692950
     29 O34          5.2720     5.4870     8.5550 o          1 80M      -0.692950
     30 O35          5.6850     6.2540     6.2110 o          1 80M      -0.692950
     31 O36          6.4530     7.6380     8.1310 o          1 80M      -0.692950
     32 O38         11.4470     3.6320     7.6830 oh         1 80M      -0.529100
     33 O39         11.7310     0.7010     9.8360 oh         1 80M      -0.529100
     34 O41         10.0370    -5.2600     4.5660 o          1 80M      -0.692950
     35 O42         12.4620    -5.5840     4.1130 o          1 80M      -0.692950
     36 O43         11.0800    -4.2420     2.5350 o          1 80M      -0.692950
     37 O44         13.0160     3.1160     5.3870 oh         1 80M      -0.529100
     38 O46          8.9350     1.8960     0.5710 o          1 80M      -0.692950
     39 O47          7.3060     2.2450     2.4210 o          1 80M      -0.692950
     40 O48          8.3680     0.0070     2.0870 o          1 80M      -0.692950
     41 S07         13.3960     0.3570     4.1590 ss         1 80M      -0.072250
     42 S15         11.4420    -2.1140     8.7700 ss         1 80M      -0.072250
     43 S22          6.1580    -0.5590     7.9640 s6         1 80M       1.260600
     44 S26          9.8130     3.0340    10.1450 ss         1 80M      -0.072250
     45 S33          6.0650     6.3110     7.6310 s6         1 80M       1.260600
     46 S37         10.9140     5.2450     5.1390 ss         1 80M      -0.072250
     47 S40         11.2520    -4.7780     3.8930 s6         1 80M       1.260600
     48 S45          8.4260     1.4610     1.8800 s6         1 80M       1.260600
     49 H1          10.9250     0.1140     2.6640 ha         1 80M       0.142875
     50 H2           8.9860     3.9020     3.4550 ha         1 80M       0.142875
     51 H3          12.4760    -2.1810     3.1740 ha         1 80M       0.142875
     52 H4          10.9570    -4.0990     6.7410 ha         1 80M       0.142875
     53 H5           7.3840     1.8570     9.1050 ha         1 80M       0.142875
     54 H6           8.6690    -2.1220     8.0100 ha         1 80M       0.142875
     55 H7           8.2690     6.2220     5.6870 ha         1 80M       0.142875
     56 H8           7.4220     4.5430     9.5820 ha         1 80M       0.142875
     57 H9          12.2710    -0.0480     8.0150 ho         1 80M       0.463750
     58 H10         11.4450     3.0430     8.4630 ho         1 80M       0.463750
     59 H11         11.6590     1.4090    10.5080 ho         1 80M       0.463750
     60 H12         12.5920     3.6340     6.1090 ho         1 80M       0.463750
@<TRIPOS>BOND
     1     1     2 ar  
     2     1     6 ar  
     3     1    49 1   
     4     2     3 ar  
     5     2    48 1   
     6     3     4 ar  
     7     3    50 1   
     8     4     5 ar  
     9     4    46 1   
    10     5     6 ar  
    11     5    37 1   
    12     6    41 1   
    13     7     8 ar  
    14     7    12 ar  
    15     7    41 1   
    16     8     9 ar  
    17     8    51 1   
    18     9    10 ar  
    19     9    47 1   
    20    10    11 ar  
    21    10    52 1   
    22    11    12 ar  
    23    11    42 1   
    24    12    25 1   
    25    13    14 ar  
    26    13    18 ar  
    27    13    42 1   
    28    14    15 ar  
    29    14    33 1   
    30    15    16 ar  
    31    15    44 1   
    32    16    17 ar  
    33    16    53 1   
    34    17    18 ar  
    35    17    43 1   
    36    18    54 1   
    37    19    20 ar  
    38    19    24 ar  
    39    19    44 1   
    40    20    21 ar  
    41    20    32 1   
    42    21    22 ar  
    43    21    46 1   
    44    22    23 ar  
    45    22    55 1   
    46    23    24 ar  
    47    23    45 1   
    48    24    56 1   
    49    25    57 1   
    50    26    43 1   
    51    27    43 1   
    52    28    43 1   
    53    29    45 1   
    54    30    45 1   
    55    31    45 1   
    56    32    58 1   
    57    33    59 1   
    58    34    47 1   
    59    35    47 1   
    60    36    47 1   
    61    37    60 1   
    62    38    48 1   
    63    39    48 1   
    64    40    48 1   
@<TRIPOS>SUBSTRUCTURE
     1 80M         1 TEMP              0 ****  ****    0 ROOT
