@<TRIPOS>MOLECULE
80M
   60    64     1     0     0
SMALL
abcg2


@<TRIPOS>ATOM
      1 C01         10.7010     0.9300     3.4790 ca         1 80M       0.073875
      2 C02          9.5780     1.7390     3.4310 ca         1 80M      -0.261000
      3 C03          9.6330     3.0140     3.9750 ca         1 80M       0.073875
      4 C04         10.7970     3.4690     4.5740 ca         1 80M      -0.214500
      5 C05         11.9370     2.6530     4.6360 ca         1 80M       0.212100
      6 C06         11.8700     1.3680     4.0850 ca         1 80M      -0.214500
      7 C08         12.6080    -1.0870     4.9940 ca         1 80M      -0.214500
      8 C09         12.3540    -2.2650     4.3100 ca         1 80M       0.073875
      9 C10         11.8350    -3.3730     4.9720 ca         1 80M      -0.261000
     10 C11         11.5270    -3.2810     6.3160 ca         1 80M       0.073875
     11 C12         11.7750    -2.1060     7.0140 ca         1 80M      -0.214500
     12 C13         12.3620    -1.0090     6.3720 ca         1 80M       0.212100
     13 C16         10.0880    -0.8060     8.7030 ca         1 80M      -0.214500
     14 C17         10.2580     0.3930     9.4030 ca         1 80M       0.212100
     15 C18          9.2620     1.3710     9.3160 ca         1 80M      -0.214500
     16 C19          8.1060     1.1310     8.5850 ca         1 80M       0.073875
     17 C20          7.9410    -0.0640     7.9080 ca         1 80M      -0.261000
     18 C21          8.9340    -1.0330     7.9720 ca         1 80M       0.073875
     19 C27          9.2220     4.0440     8.7850 ca         1 80M      -0.214500
     20 C28         10.1180     4.1420     7.7160 ca         1 80M       0.212100
     21 C29          9.7860     4.9730     6.6370 ca         1 80M      -0.214500
     22 C30          8.6300     5.7340     6.6720 ca         1 80M       0.073875
     23 C31          7.7820     5.6840     7.7730 ca         1 80M      -0.261000
     24 C32          8.0730     4.8270     8.8170 ca         1 80M       0.073875
     25 O14         12.6740     0.1180     7.0060 oh         1 80M      -0.529100
     26 O23          6.8590    -1.0810     5.7730 o          1 80M      -0.692950
     27 O24          5.8010     0.9060     6.7810 o          1 80M      -0.692950
     28 O25          5.6460    -1.2790     7.9010 o          1 80M      -0.692950
     29 O34          5.6270     6.3800     9.0590 o          1 80M      -0.692950
     30 O35          5.5760     6.3880     6.5930 o          1 80M      -0.692950
     31 O36          6.8620     8.1000     7.7990 o          1 80M      -0.692950
     32 O38         11.2610     3.4650     7.6470 oh         1 80M      -0.529100
     33 O39         11.3920     0.5530    10.0920 oh         1 80M      -0.529100
     34 O41         11.0200    -5.8490     5.0380 o          1 80M      -0.692950
     35 O42         12.8490    -5.2490     3.5010 o          1 80M      -0.692950
     36 O43         10.5520    -4.5040     3.0260 o          1 80M      -0.692950
     37 O44         13.0820     3.0540     5.1840 oh         1 80M      -0.529100
     38 O46          8.1610     1.8340     1.2580 o          1 80M      -0.692950
     39 O47          6.9820     1.6960     3.4110 o          1 80M      -0.692950
     40 O48          8.1860    -0.2710     2.5300 o          1 80M      -0.692950
     41 S07         13.2940     0.3060     4.1420 ss         1 80M      -0.072250
     42 S15         11.4020    -2.0070     8.7420 ss         1 80M      -0.072250
     43 S22          6.4250    -0.4070     7.0070 s6         1 80M       1.260600
     44 S26          9.5300     2.9320    10.1290 ss         1 80M      -0.072250
     45 S33          6.3260     6.7300     7.8120 s6         1 80M       1.260600
     46 S37         10.8730     5.1130     5.2450 ss         1 80M      -0.072250
     47 S40         11.5350    -4.8830     4.0540 s6         1 80M       1.260600
     48 S45          8.0930     1.1980     2.5840 s6         1 80M       1.260600
     49 H1          10.6700    -0.0630     3.0510 ha         1 80M       0.142875
     50 H2           8.7690     3.6660     3.9420 ha         1 80M       0.142875
     51 H3          12.5640    -2.3050     3.2490 ha         1 80M       0.142875
     52 H4          11.0830    -4.1190     6.8370 ha         1 80M       0.142875
     53 H5           7.3440     1.8980     8.5300 ha         1 80M       0.142875
     54 H6           8.8270    -1.9660     7.4330 ha         1 80M       0.142875
     55 H7           8.3990     6.3710     5.8270 ha         1 80M       0.142875
     56 H8           7.4030     4.7440     9.6620 ha         1 80M       0.142875
     57 H9          12.6400    -0.0120     7.9660 ho         1 80M       0.463750
     58 H10         11.4930     3.0860     8.5060 ho         1 80M       0.463750
     59 H11         11.4570     1.4420    10.4730 ho         1 80M       0.463750
     60 H12         12.9530     3.9100     5.6220 ho         1 80M       0.463750
@<TRIPOS>BOND
     1     1     2 ar  
     2     1     6 ar  
     3     1    49 1   
     4     2     3 ar  
     5     2    48 1   
     6     3     4 ar  
     7     3    50 1   
     8     4     5 ar  
     9     4    46 1   
    10     5     6 ar  
    11     5    37 1   
    12     6    41 1   
    13     7     8 ar  
    14     7    12 ar  
    15     7    41 1   
    16     8     9 ar  
    17     8    51 1   
    18     9    10 ar  
    19     9    47 1   
    20    10    11 ar  
    21    10    52 1   
    22    11    12 ar  
    23    11    42 1   
    24    12    25 1   
    25    13    14 ar  
    26    13    18 ar  
    27    13    42 1   
    28    14    15 ar  
    29    14    33 1   
    30    15    16 ar  
    31    15    44 1   
    32    16    17 ar  
    33    16    53 1   
    34    17    18 ar  
    35    17    43 1   
    36    18    54 1   
    37    19    20 ar  
    38    19    24 ar  
    39    19    44 1   
    40    20    21 ar  
    41    20    32 1   
    42    21    22 ar  
    43    21    46 1   
    44    22    23 ar  
    45    22    55 1   
    46    23    24 ar  
    47    23    45 1   
    48    24    56 1   
    49    25    57 1   
    50    26    43 1   
    51    27    43 1   
    52    28    43 1   
    53    29    45 1   
    54    30    45 1   
    55    31    45 1   
    56    32    58 1   
    57    33    59 1   
    58    34    47 1   
    59    35    47 1   
    60    36    47 1   
    61    37    60 1   
    62    38    48 1   
    63    39    48 1   
    64    40    48 1   
@<TRIPOS>SUBSTRUCTURE
     1 80M         1 TEMP              0 ****  ****    0 ROOT
