@<TRIPOS>MOLECULE
80N
   40    40     1     0     0
SMALL
No Charge or Current Charge


@<TRIPOS>ATOM
      1 C01         27.7210    83.7870    84.6850 c2         1 80N      -0.112400
      2 C02         28.3430    82.8450    85.4190 c2         1 80N      -0.217200
      3 C03         25.6530    84.4080    87.1010 c2         1 80N      -0.204200
      4 C04         25.8970    84.8880    85.8670 c2         1 80N      -0.221200
      5 C06         28.5290    81.3770    85.0720 c3         1 80N      -0.031200
      6 C07         27.2060    80.5790    85.2520 c3         1 80N       0.211500
      7 C08         26.4830    80.8910    86.5690 c2         1 80N      -0.156400
      8 C09         25.3440    81.6210    86.5740 c2         1 80N      -0.199200
      9 C11         24.3590    83.7770    87.6160 c3         1 80N      -0.007800
     10 C12         27.1910    83.5900    83.2710 c3         1 80N      -0.053900
     11 C13         27.2350    80.4210    87.8170 c3         1 80N      -0.048900
     12 C14         23.1550    84.0440    86.6680 c3         1 80N      -0.082600
     13 C15         24.0300    84.3910    89.0010 c3         1 80N      -0.082600
     14 C05         27.2880    85.1020    85.3110 c3         1 80N      -0.003000
     15 C10         24.5980    82.2360    87.7620 c3         1 80N      -0.031200
     16 O16         27.4590    79.1760    85.1380 oh         1 80N      -0.660000
     17 H1          28.6240    83.0740    86.4480 ha         1 80N       0.168000
     18 H2          26.4930    84.2640    87.7840 ha         1 80N       0.165000
     19 H3          25.1080    84.9820    85.1220 ha         1 80N       0.169000
     20 H4          29.3060    80.9450    85.7130 hc         1 80N       0.056700
     21 H5          28.8870    81.2570    84.0430 hc         1 80N       0.056700
     22 H6          26.5440    80.8790    84.4280 h1         1 80N       0.029700
     23 H7          24.9190    81.9240    85.6170 ha         1 80N       0.165000
     24 H8          27.4710    82.6210    82.8460 hc         1 80N       0.039033
     25 H9          26.0960    83.6510    83.2450 hc         1 80N       0.039033
     26 H10         27.5830    84.3620    82.5980 hc         1 80N       0.039033
     27 H11         26.6760    80.5790    88.7430 hc         1 80N       0.040700
     28 H12         27.4500    79.3470    87.7750 hc         1 80N       0.040700
     29 H13         28.1920    80.9450    87.9250 hc         1 80N       0.040700
     30 H14         22.2320    83.6210    87.0830 hc         1 80N       0.035033
     31 H15         22.9960    85.1210    86.5320 hc         1 80N       0.035033
     32 H16         23.3080    83.5950    85.6810 hc         1 80N       0.035033
     33 H17         24.8530    84.2340    89.7090 hc         1 80N       0.035033
     34 H18         23.8610    85.4710    88.9170 hc         1 80N       0.035033
     35 H19         23.1270    83.9370    89.4270 hc         1 80N       0.035033
     36 H20         27.9750    85.3820    86.1200 hc         1 80N       0.050200
     37 H21         27.3110    85.9280    84.5880 hc         1 80N       0.050200
     38 H22         23.6350    81.7280    87.9000 hc         1 80N       0.047700
     39 H23         25.1510    82.0690    88.6910 hc         1 80N       0.047700
     40 H24         26.6080    78.7290    85.3380 ho         1 80N       0.444000
@<TRIPOS>BOND
     1     1     2 2   
     2     1    10 1   
     3     1    14 1   
     4     2     5 1   
     5     2    17 1   
     6     3     4 2   
     7     3     9 1   
     8     3    18 1   
     9     4    14 1   
    10     4    19 1   
    11     5     6 1   
    12     5    20 1   
    13     5    21 1   
    14     6     7 1   
    15     6    16 1   
    16     6    22 1   
    17     7     8 2   
    18     7    11 1   
    19     8    15 1   
    20     8    23 1   
    21     9    12 1   
    22     9    13 1   
    23     9    15 1   
    24    10    24 1   
    25    10    25 1   
    26    10    26 1   
    27    11    27 1   
    28    11    28 1   
    29    11    29 1   
    30    12    30 1   
    31    12    31 1   
    32    12    32 1   
    33    13    33 1   
    34    13    34 1   
    35    13    35 1   
    36    14    36 1   
    37    14    37 1   
    38    15    38 1   
    39    15    39 1   
    40    16    40 1   
@<TRIPOS>SUBSTRUCTURE
     1 80N         1 TEMP              0 ****  ****    0 ROOT
