@<TRIPOS>MOLECULE
80N
   40    40     1     0     0
SMALL
abcg2


@<TRIPOS>ATOM
      1 C01         27.7160    83.7690    84.6930 c2         1 80N      -0.112400
      2 C02         28.2760    82.7920    85.4050 c2         1 80N      -0.217200
      3 C03         25.6660    84.3520    87.1070 c2         1 80N      -0.204200
      4 C04         25.9250    84.8520    85.9030 c2         1 80N      -0.221200
      5 C06         28.4160    81.3500    85.0210 c3         1 80N      -0.031200
      6 C07         27.0980    80.5940    85.2720 c3         1 80N       0.211500
      7 C08         26.4890    80.9460    86.6140 c2         1 80N      -0.156400
      8 C09         25.3330    81.6150    86.6370 c2         1 80N      -0.199200
      9 C11         24.3720    83.7620    87.5970 c3         1 80N      -0.007800
     10 C12         27.2520    83.6320    83.2760 c3         1 80N      -0.053900
     11 C13         27.2910    80.5670    87.8230 c3         1 80N      -0.048900
     12 C14         23.2200    83.9680    86.6180 c3         1 80N      -0.082600
     13 C15         23.9920    84.3760    88.9470 c3         1 80N      -0.082600
     14 C05         27.3280    85.0580    85.3930 c3         1 80N      -0.003000
     15 C10         24.6400    82.2410    87.8080 c3         1 80N      -0.031200
     16 O16         27.3830    79.2140    85.1390 oh         1 80N      -0.660000
     17 H1          28.5290    83.0200    86.4370 ha         1 80N       0.168000
     18 H2          26.5000    84.2260    87.7980 ha         1 80N       0.165000
     19 H3          25.1270    84.9720    85.1770 ha         1 80N       0.169000
     20 H4          29.2120    80.8860    85.6100 hc         1 80N       0.056700
     21 H5          28.6920    81.2250    83.9700 hc         1 80N       0.056700
     22 H6          26.3890    80.9160    84.4960 h1         1 80N       0.029700
     23 H7          24.8600    81.7990    85.6740 ha         1 80N       0.165000
     24 H8          27.5270    82.6800    82.8260 hc         1 80N       0.039033
     25 H9          26.1640    83.7250    83.2110 hc         1 80N       0.039033
     26 H10         27.6670    84.4300    82.6550 hc         1 80N       0.039033
     27 H11         26.7850    80.8020    88.7580 hc         1 80N       0.040700
     28 H12         27.5060    79.4980    87.8270 hc         1 80N       0.040700
     29 H13         28.2570    81.0780    87.8350 hc         1 80N       0.040700
     30 H14         22.3030    83.5330    87.0190 hc         1 80N       0.035033
     31 H15         23.0350    85.0300    86.4460 hc         1 80N       0.035033
     32 H16         23.4060    83.5070    85.6460 hc         1 80N       0.035033
     33 H17         24.8070    84.2820    89.6680 hc         1 80N       0.035033
     34 H18         23.7570    85.4370    88.8430 hc         1 80N       0.035033
     35 H19         23.1160    83.8790    89.3680 hc         1 80N       0.035033
     36 H20         28.0090    85.2540    86.2240 hc         1 80N       0.050200
     37 H21         27.3840    85.9100    84.7100 hc         1 80N       0.050200
     38 H22         23.6770    81.7520    87.9990 hc         1 80N       0.047700
     39 H23         25.2330    82.1200    88.7170 hc         1 80N       0.047700
     40 H24         26.5560    78.7300    85.2300 ho         1 80N       0.444000
@<TRIPOS>BOND
     1     1     2 2   
     2     1    10 1   
     3     1    14 1   
     4     2     5 1   
     5     2    17 1   
     6     3     4 2   
     7     3     9 1   
     8     3    18 1   
     9     4    14 1   
    10     4    19 1   
    11     5     6 1   
    12     5    20 1   
    13     5    21 1   
    14     6     7 1   
    15     6    16 1   
    16     6    22 1   
    17     7     8 2   
    18     7    11 1   
    19     8    15 1   
    20     8    23 1   
    21     9    12 1   
    22     9    13 1   
    23     9    15 1   
    24    10    24 1   
    25    10    25 1   
    26    10    26 1   
    27    11    27 1   
    28    11    28 1   
    29    11    29 1   
    30    12    30 1   
    31    12    31 1   
    32    12    32 1   
    33    13    33 1   
    34    13    34 1   
    35    13    35 1   
    36    14    36 1   
    37    14    37 1   
    38    15    38 1   
    39    15    39 1   
    40    16    40 1   
@<TRIPOS>SUBSTRUCTURE
     1 80N         1 TEMP              0 ****  ****    0 ROOT
