@<TRIPOS>MOLECULE
80P
   73    77     1     0     0
SMALL
abcg2


@<TRIPOS>ATOM
      1 C01        210.7060   175.9090   223.3960 c3         1 80P       0.187800
      2 C02        211.7840   176.3600   222.4230 c3         1 80P      -0.117600
      3 C04        209.7890   173.7680   222.5340 c6         1 80P       0.172700
      4 C05        208.5480   173.1920   223.1990 c2         1 80P       0.235900
      5 C06        207.7280   172.3130   222.5630 ce         1 80P      -0.422400
      6 C07        208.0870   171.9010   221.2440 c          1 80P       0.580300
      7 C08        209.5890   171.7810   220.8820 c6         1 80P       0.079200
      8 C09        209.8450   171.8250   219.3610 c2         1 80P       0.233900
      9 C10        211.1170   171.9630   218.8960 ce         1 80P      -0.308400
     10 C11        211.4830   171.6150   217.5440 c          1 80P       0.632900
     11 C12        212.9240   171.5510   217.2160 ca         1 80P      -0.296600
     12 C13        213.3130   170.8030   216.0870 ca         1 80P       0.252100
     13 C14        214.6660   170.5900   215.8510 ca         1 80P      -0.200000
     14 C15        215.6380   171.2030   216.6160 ca         1 80P       0.051700
     15 C16        215.2450   172.1140   217.6210 ca         1 80P      -0.252300
     16 C17        213.8950   172.2150   217.9790 ca         1 80P       0.073700
     17 C18        213.3770   173.0220   219.1420 c6         1 80P      -0.042100
     18 C19        212.2020   172.3610   219.8520 c6         1 80P       0.010500
     19 C20        211.6120   173.3470   220.8460 c6         1 80P      -0.076400
     20 C21        210.5340   172.7090   221.7070 c6         1 80P      -0.078700
     21 C22        216.3010   172.9810   218.2500 c3         1 80P       0.361300
     22 C26        217.0710   170.7910   216.3370 c5         1 80P       0.178800
     23 C28        218.5020   169.0910   215.7700 c5         1 80P       0.131800
     24 C29        218.5430   170.0310   214.5520 c5         1 80P      -0.115400
     25 C30        217.6070   171.1910   214.9400 c5         1 80P      -0.105400
     26 C36        206.3850   171.9510   223.1200 c          1 80P       0.657300
     27 C40        211.6540   173.7840   224.2230 c3         1 80P       0.187800
     28 C41        211.2460   172.6140   225.1040 c3         1 80P      -0.117600
     29 F23        215.8230   174.0980   218.8080 f          1 80P      -0.119000
     30 F24        216.9990   172.3460   219.2080 f          1 80P      -0.119000
     31 F25        217.1930   173.4110   217.3410 f          1 80P      -0.119000
     32 N03        210.5330   174.4660   223.5760 n3         1 80P      -0.808600
     33 N27        217.2370   169.3400   216.4490 n7         1 80P      -0.822400
     34 N38        206.1290   170.6350   223.1500 nt         1 80P      -0.598000
     35 O31        212.4380   170.2530   215.2600 oh         1 80P      -0.547100
     36 O32        210.6610   171.2870   216.6750 o          1 80P      -0.575100
     37 O33        208.8330   171.5740   218.5700 oh         1 80P      -0.510100
     38 O34        209.8680   170.4170   221.1690 oh         1 80P      -0.631000
     39 O35        207.2400   171.4890   220.4480 o          1 80P      -0.535100
     40 O37        205.6040   172.7950   223.5270 o          1 80P      -0.590100
     41 O39        208.2970   173.6680   224.3770 oh         1 80P      -0.477100
     42 H011       209.7430   176.3260   223.0950 h1         1 80P       0.052950
     43 H012       210.9180   176.3240   224.3840 h1         1 80P       0.052950
     44 H023       211.8700   177.4470   222.4590 hc         1 80P       0.046533
     45 H022       212.7600   175.9440   222.6750 hc         1 80P       0.046533
     46 H021       211.5490   176.0840   221.3970 hc         1 80P       0.046533
     47 H041       209.4100   174.5260   221.8380 h1         1 80P       0.093700
     48 H141       214.9390   169.9370   215.0290 ha         1 80P       0.134000
     49 H181       214.1390   173.1840   219.8980 hc         1 80P       0.064700
     50 H182       213.0710   174.0100   218.7790 hc         1 80P       0.064700
     51 H191       212.5820   171.4840   220.3920 hc         1 80P       0.067700
     52 H202       212.3990   173.7510   221.4840 hc         1 80P       0.053200
     53 H201       211.1960   174.1880   220.2830 hc         1 80P       0.053200
     54 H211       211.0380   172.0350   222.4050 hc         1 80P       0.068700
     55 H261       217.7490   171.2070   217.0790 h1         1 80P       0.080700
     56 H282       218.5910   168.0380   215.5060 h1         1 80P       0.056700
     57 H281       219.3210   169.3260   216.4550 h1         1 80P       0.056700
     58 H292       218.1690   169.5170   213.6650 hc         1 80P       0.048700
     59 H291       219.5560   170.3650   214.3270 hc         1 80P       0.048700
     60 H302       218.1200   172.1510   214.9780 hc         1 80P       0.056200
     61 H301       216.7920   171.2940   214.2210 hc         1 80P       0.056200
     62 H401       212.4120   173.4560   223.5050 h1         1 80P       0.052950
     63 H402       212.1470   174.5290   224.8500 h1         1 80P       0.052950
     64 H411       212.1400   172.1650   225.5370 hc         1 80P       0.046533
     65 H413       210.6060   172.9340   225.9270 hc         1 80P       0.046533
     66 H412       210.7280   171.8240   224.5580 hc         1 80P       0.046533
     67 H271       216.5030   168.8680   215.9330 hn         1 80P       0.404000
     68 H381       205.2340   170.3010   223.4680 hn         1 80P       0.315000
     69 H382       206.7990   169.9500   222.8460 hn         1 80P       0.315000
     70 H311       211.5390   170.5470   215.5710 ho         1 80P       0.530000
     71 H331       208.0180   171.4340   219.1330 ho         1 80P       0.527000
     72 H341       209.8100   170.2750   222.1240 ho         1 80P       0.453000
     73 H391       209.1070   174.2360   224.5600 ho         1 80P       0.516000
@<TRIPOS>BOND
     1     1     2 1   
     2     1    32 1   
     3     1    42 1   
     4     1    43 1   
     5     2    44 1   
     6     2    45 1   
     7     2    46 1   
     8     3     4 1   
     9     3    20 1   
    10     3    32 1   
    11     3    47 1   
    12     4     5 2   
    13     4    41 1   
    14     5     6 1   
    15     5    26 1   
    16     6     7 1   
    17     6    39 2   
    18     7     8 1   
    19     7    20 1   
    20     7    38 1   
    21     8     9 2   
    22     8    37 1   
    23     9    10 1   
    24     9    18 1   
    25    10    11 1   
    26    10    36 2   
    27    11    12 ar  
    28    11    16 ar  
    29    12    13 ar  
    30    12    35 1   
    31    13    14 ar  
    32    13    48 1   
    33    14    15 ar  
    34    14    22 1   
    35    15    16 ar  
    36    15    21 1   
    37    16    17 1   
    38    17    18 1   
    39    17    49 1   
    40    17    50 1   
    41    18    19 1   
    42    18    51 1   
    43    19    20 1   
    44    19    52 1   
    45    19    53 1   
    46    20    54 1   
    47    21    29 1   
    48    21    30 1   
    49    21    31 1   
    50    22    25 1   
    51    22    33 1   
    52    22    55 1   
    53    23    24 1   
    54    23    33 1   
    55    23    56 1   
    56    23    57 1   
    57    24    25 1   
    58    24    58 1   
    59    24    59 1   
    60    25    60 1   
    61    25    61 1   
    62    26    34 1   
    63    26    40 2   
    64    27    28 1   
    65    27    32 1   
    66    27    62 1   
    67    27    63 1   
    68    28    64 1   
    69    28    65 1   
    70    28    66 1   
    71    33    67 1   
    72    34    68 1   
    73    34    69 1   
    74    35    70 1   
    75    37    71 1   
    76    38    72 1   
    77    41    73 1   
@<TRIPOS>SUBSTRUCTURE
     1 80P         1 TEMP              0 ****  ****    0 ROOT
