@<TRIPOS>MOLECULE
80P
   73    77     1     0     0
SMALL
No Charge or Current Charge


@<TRIPOS>ATOM
      1 C01        210.7000   176.0390   223.3420 c3         1 80P       0.187800
      2 C02        211.8180   176.3940   222.3490 c3         1 80P      -0.117600
      3 C04        209.7110   173.8100   222.5320 c6         1 80P       0.172700
      4 C05        208.4220   173.2860   223.1450 c2         1 80P       0.235900
      5 C06        207.5940   172.4300   222.5280 ce         1 80P      -0.422400
      6 C07        207.9910   171.9340   221.1910 c          1 80P       0.580300
      7 C08        209.5370   171.6650   220.9470 c6         1 80P       0.079200
      8 C09        209.9010   171.5580   219.4200 c2         1 80P       0.233900
      9 C10        211.1310   171.8600   218.9250 ce         1 80P      -0.308400
     10 C11        211.5600   171.5970   217.5100 c          1 80P       0.632900
     11 C12        213.0290   171.4270   217.2260 ca         1 80P      -0.296600
     12 C13        213.4550   170.6390   216.1490 ca         1 80P       0.252100
     13 C14        214.8090   170.4260   215.9270 ca         1 80P      -0.200000
     14 C15        215.7960   171.0520   216.7130 ca         1 80P       0.051700
     15 C16        215.3830   171.9930   217.7120 ca         1 80P      -0.252300
     16 C17        213.9870   172.0860   218.0270 ca         1 80P       0.073700
     17 C18        213.4460   172.9250   219.1960 c6         1 80P      -0.042100
     18 C19        212.2140   172.3080   219.8950 c6         1 80P       0.010500
     19 C20        211.5760   173.3270   220.8520 c6         1 80P      -0.076400
     20 C21        210.4830   172.6820   221.7490 c6         1 80P      -0.078700
     21 C22        216.4260   172.8930   218.4380 c3         1 80P       0.361300
     22 C26        217.2720   170.6600   216.4450 c5         1 80P       0.178800
     23 C28        218.5970   169.1580   215.2380 c5         1 80P       0.131800
     24 C29        218.1440   170.2030   214.2000 c5         1 80P      -0.115400
     25 C30        217.7200   171.3760   215.1260 c5         1 80P      -0.105400
     26 C36        206.3130   171.9940   223.1320 c          1 80P       0.657300
     27 C40        211.5790   173.9050   224.3600 c3         1 80P       0.187800
     28 C41        211.0980   172.7550   225.2650 c3         1 80P      -0.117600
     29 F23        215.9480   174.1150   218.7630 f          1 80P      -0.119000
     30 F24        216.8630   172.3190   219.5810 f          1 80P      -0.119000
     31 F25        217.5180   173.1710   217.6930 f          1 80P      -0.119000
     32 N03        210.4920   174.5840   223.5930 n3         1 80P      -0.808600
     33 N27        217.4850   169.2060   216.2040 n7         1 80P      -0.822400
     34 N38        205.9830   170.7020   222.9480 nt         1 80P      -0.598000
     35 O31        212.5590   170.0250   215.3300 oh         1 80P      -0.547100
     36 O32        210.7600   171.4590   216.5900 o          1 80P      -0.575100
     37 O33        208.9470   171.0070   218.6440 oh         1 80P      -0.510100
     38 O34        209.7980   170.3420   221.4930 oh         1 80P      -0.631000
     39 O35        207.1370   171.5280   220.4120 o          1 80P      -0.535100
     40 O37        205.6210   172.6910   223.8520 o          1 80P      -0.590100
     41 O39        208.2390   173.8200   224.3530 oh         1 80P      -0.477100
     42 H011       209.7660   176.4950   222.9870 h1         1 80P       0.052950
     43 H012       210.9370   176.5320   224.2940 h1         1 80P       0.052950
     44 H023       211.9910   177.4760   222.3570 hc         1 80P       0.046533
     45 H022       212.7580   175.8980   222.6160 hc         1 80P       0.046533
     46 H021       211.5390   176.1140   221.3290 hc         1 80P       0.046533
     47 H041       209.3720   174.5260   221.7660 h1         1 80P       0.093700
     48 H141       215.0950   169.7650   215.1150 ha         1 80P       0.134000
     49 H181       214.2060   173.0460   219.9780 hc         1 80P       0.064700
     50 H182       213.2050   173.9320   218.8260 hc         1 80P       0.064700
     51 H191       212.5520   171.4330   220.4700 hc         1 80P       0.067700
     52 H202       212.3580   173.7730   221.4780 hc         1 80P       0.053200
     53 H201       211.1400   174.1420   220.2580 hc         1 80P       0.053200
     54 H211       211.0240   172.0840   222.4900 hc         1 80P       0.068700
     55 H261       217.9230   170.9480   217.2800 h1         1 80P       0.080700
     56 H282       218.7220   168.1580   214.7980 h1         1 80P       0.056700
     57 H281       219.5480   169.4460   215.7110 h1         1 80P       0.056700
     58 H292       217.3000   169.8340   213.6030 hc         1 80P       0.048700
     59 H291       218.9430   170.4800   213.5040 hc         1 80P       0.048700
     60 H302       218.5660   172.0440   215.3240 hc         1 80P       0.056200
     61 H301       216.9350   171.9910   214.6710 hc         1 80P       0.056200
     62 H401       212.3570   173.5280   223.6850 h1         1 80P       0.052950
     63 H402       212.0750   174.6350   225.0140 h1         1 80P       0.052950
     64 H411       211.9550   172.2970   225.7730 hc         1 80P       0.046533
     65 H413       210.4150   173.1320   226.0340 hc         1 80P       0.046533
     66 H412       210.5840   171.9710   224.6990 hc         1 80P       0.046533
     67 H271       216.6490   168.8380   215.7380 hn         1 80P       0.404000
     68 H381       205.1360   170.3480   223.3660 hn         1 80P       0.315000
     69 H382       206.5470   170.1150   222.3540 hn         1 80P       0.315000
     70 H311       211.6760   170.4090   215.5670 ho         1 80P       0.530000
     71 H331       208.1220   170.9670   219.1900 ho         1 80P       0.527000
     72 H341       209.6630   170.3800   222.4660 ho         1 80P       0.453000
     73 H391       209.0990   174.3200   224.4410 ho         1 80P       0.516000
@<TRIPOS>BOND
     1     1     2 1   
     2     1    32 1   
     3     1    42 1   
     4     1    43 1   
     5     2    44 1   
     6     2    45 1   
     7     2    46 1   
     8     3     4 1   
     9     3    20 1   
    10     3    32 1   
    11     3    47 1   
    12     4     5 2   
    13     4    41 1   
    14     5     6 1   
    15     5    26 1   
    16     6     7 1   
    17     6    39 2   
    18     7     8 1   
    19     7    20 1   
    20     7    38 1   
    21     8     9 2   
    22     8    37 1   
    23     9    10 1   
    24     9    18 1   
    25    10    11 1   
    26    10    36 2   
    27    11    12 ar  
    28    11    16 ar  
    29    12    13 ar  
    30    12    35 1   
    31    13    14 ar  
    32    13    48 1   
    33    14    15 ar  
    34    14    22 1   
    35    15    16 ar  
    36    15    21 1   
    37    16    17 1   
    38    17    18 1   
    39    17    49 1   
    40    17    50 1   
    41    18    19 1   
    42    18    51 1   
    43    19    20 1   
    44    19    52 1   
    45    19    53 1   
    46    20    54 1   
    47    21    29 1   
    48    21    30 1   
    49    21    31 1   
    50    22    25 1   
    51    22    33 1   
    52    22    55 1   
    53    23    24 1   
    54    23    33 1   
    55    23    56 1   
    56    23    57 1   
    57    24    25 1   
    58    24    58 1   
    59    24    59 1   
    60    25    60 1   
    61    25    61 1   
    62    26    34 1   
    63    26    40 2   
    64    27    28 1   
    65    27    32 1   
    66    27    62 1   
    67    27    63 1   
    68    28    64 1   
    69    28    65 1   
    70    28    66 1   
    71    33    67 1   
    72    34    68 1   
    73    34    69 1   
    74    35    70 1   
    75    37    71 1   
    76    38    72 1   
    77    41    73 1   
@<TRIPOS>SUBSTRUCTURE
     1 80P         1 TEMP              0 ****  ****    0 ROOT
