@<TRIPOS>MOLECULE
80Q
   30    31     1     0     0
SMALL
No Charge or Current Charge


@<TRIPOS>ATOM
      1 C01         -3.9100    -1.0090    -0.7780 c6         1 80Q      -0.090400
      2 C02         -5.0890    -0.0210    -0.9330 c6         1 80Q       0.161300
      3 N03         -5.2840     0.7700     0.3040 n7         1 80Q      -0.864400
      4 C04         -4.0730     1.5240     0.7050 c6         1 80Q       0.161300
      5 C05         -2.8680     0.5770     0.9000 c6         1 80Q      -0.090400
      6 C06         -2.6150    -0.2650    -0.3790 c6         1 80Q       0.184300
      7 O07         -1.5580    -1.2290    -0.1700 os         1 80Q      -0.462300
      8 C08         -0.2410    -0.8340    -0.0830 ca         1 80Q       0.626300
      9 C09          0.6780    -1.7700     0.4070 ca         1 80Q      -0.196000
     10 C10          2.0340    -1.4300     0.4960 ca         1 80Q       0.002000
     11 C11          2.4200    -0.1420     0.0800 ca         1 80Q      -0.309300
     12 C12          1.4350     0.7270    -0.4160 ca         1 80Q       0.440900
     13 N13          0.1300     0.3950    -0.5010 nb         1 80Q      -0.769000
     14 C14          3.8700     0.3240     0.1270 c3         1 80Q       0.371300
     15 F15          4.4240     0.3260    -1.1050 f          1 80Q      -0.114000
     16 F16          3.9760     1.5820     0.6120 f          1 80Q      -0.114000
     17 F17          4.6460    -0.4600     0.9090 f          1 80Q      -0.114000
     18 H011        -4.1590    -1.7620    -0.0170 hc         1 80Q       0.062200
     19 H012        -3.7550    -1.5500    -1.7210 hc         1 80Q       0.062200
     20 H021        -4.8900     0.6580    -1.7760 h1         1 80Q       0.033450
     21 H022        -6.0090    -0.5780    -1.1630 h1         1 80Q       0.033450
     22 H06         -2.3410     0.4030    -1.2100 h1         1 80Q       0.064700
     23 H03         -6.0560     1.4350     0.1550 hn         1 80Q       0.414000
     24 H041        -3.8320     2.2690    -0.0690 h1         1 80Q       0.033450
     25 H042        -4.2710     2.0670     1.6410 h1         1 80Q       0.033450
     26 H051        -1.9800     1.1700     1.1540 hc         1 80Q       0.062200
     27 H052        -3.0570    -0.0890     1.7530 hc         1 80Q       0.062200
     28 H09          0.3320    -2.7510     0.7140 ha         1 80Q       0.145000
     29 H10          2.7560    -2.1520     0.8750 ha         1 80Q       0.134000
     30 H12          1.6960     1.7280    -0.7620 h4         1 80Q       0.035100
@<TRIPOS>BOND
     1     1     2 1   
     2     1     6 1   
     3     1    18 1   
     4     1    19 1   
     5     2     3 1   
     6     2    20 1   
     7     2    21 1   
     8     3     4 1   
     9     3    23 1   
    10     4     5 1   
    11     4    24 1   
    12     4    25 1   
    13     5     6 1   
    14     5    26 1   
    15     5    27 1   
    16     6     7 1   
    17     6    22 1   
    18     7     8 1   
    19     8     9 ar  
    20     8    13 ar  
    21     9    10 ar  
    22     9    28 1   
    23    10    11 ar  
    24    10    29 1   
    25    11    12 ar  
    26    11    14 1   
    27    12    13 ar  
    28    12    30 1   
    29    14    15 1   
    30    14    16 1   
    31    14    17 1   
@<TRIPOS>SUBSTRUCTURE
     1 80Q         1 TEMP              0 ****  ****    0 ROOT
