@<TRIPOS>MOLECULE
80Q
   30    31     1     0     0
SMALL
abcg2


@<TRIPOS>ATOM
      1 C01         -3.7920    -0.9760    -0.7530 c6         1 80Q      -0.090400
      2 C02         -4.9710    -0.0330    -0.9530 c6         1 80Q       0.161300
      3 N03         -5.2440     0.6830     0.2790 n7         1 80Q      -0.864400
      4 C04         -4.1190     1.5130     0.6720 c6         1 80Q       0.161300
      5 C05         -2.9010     0.6390     0.9420 c6         1 80Q      -0.090400
      6 C06         -2.5750    -0.1920    -0.2910 c6         1 80Q       0.184300
      7 O07         -1.5460    -1.1560    -0.0140 os         1 80Q      -0.462300
      8 C08         -0.2710    -0.7890     0.0050 ca         1 80Q       0.626300
      9 C09          0.6690    -1.7960     0.2800 ca         1 80Q      -0.196000
     10 C10          1.9950    -1.4480     0.3010 ca         1 80Q       0.002000
     11 C11          2.3610    -0.1200     0.0530 ca         1 80Q      -0.309300
     12 C12          1.3550     0.7880    -0.2090 ca         1 80Q       0.440900
     13 N13          0.0660     0.4610    -0.2310 nb         1 80Q      -0.769000
     14 C14          3.7990     0.2660     0.0640 c3         1 80Q       0.371300
     15 F15          4.4880    -0.3550    -0.9060 f          1 80Q      -0.114000
     16 F16          3.9790     1.5790    -0.1080 f          1 80Q      -0.114000
     17 F17          4.3960    -0.0660     1.2180 f          1 80Q      -0.114000
     18 H011        -4.0540    -1.7260    -0.0020 hc         1 80Q       0.062200
     19 H012        -3.5740    -1.4990    -1.6870 hc         1 80Q       0.062200
     20 H021        -4.7530     0.6450    -1.7960 h1         1 80Q       0.033450
     21 H022        -5.8550    -0.6080    -1.2340 h1         1 80Q       0.033450
     22 H06         -2.2390     0.4670    -1.0970 h1         1 80Q       0.064700
     23 H03         -6.0660     1.2610     0.1600 hn         1 80Q       0.414000
     24 H041        -3.8610     2.2640    -0.0930 h1         1 80Q       0.033450
     25 H042        -4.3800     2.0620     1.5780 h1         1 80Q       0.033450
     26 H051        -2.0520     1.2660     1.2200 hc         1 80Q       0.062200
     27 H052        -3.1130    -0.0290     1.7820 hc         1 80Q       0.062200
     28 H09          0.3500    -2.8120     0.4670 ha         1 80Q       0.145000
     29 H10          2.7410    -2.2040     0.5100 ha         1 80Q       0.134000
     30 H12          1.5750     1.8300    -0.4090 h4         1 80Q       0.035100
@<TRIPOS>BOND
     1     1     2 1   
     2     1     6 1   
     3     1    18 1   
     4     1    19 1   
     5     2     3 1   
     6     2    20 1   
     7     2    21 1   
     8     3     4 1   
     9     3    23 1   
    10     4     5 1   
    11     4    24 1   
    12     4    25 1   
    13     5     6 1   
    14     5    26 1   
    15     5    27 1   
    16     6     7 1   
    17     6    22 1   
    18     7     8 1   
    19     8     9 ar  
    20     8    13 ar  
    21     9    10 ar  
    22     9    28 1   
    23    10    11 ar  
    24    10    29 1   
    25    11    12 ar  
    26    11    14 1   
    27    12    13 ar  
    28    12    30 1   
    29    14    15 1   
    30    14    16 1   
    31    14    17 1   
@<TRIPOS>SUBSTRUCTURE
     1 80Q         1 TEMP              0 ****  ****    0 ROOT
