@<TRIPOS>MOLECULE
80R
   30    32     1     0     0
SMALL
bcc


@<TRIPOS>ATOM
      1 C4          -2.1500     1.4820    -0.5940 ca         1 80R      -0.007000
      2 C5           1.8430    -0.0170     0.6400 ca         1 80R      -0.143000
      3 C6          -3.5380    -0.3400     0.1710 ca         1 80R       0.000000
      4 C7           3.9450    -0.4250    -0.5020 ca         1 80R       0.003600
      5 C8           3.1650     0.2990     0.4080 ca         1 80R       0.020600
      6 C10         -1.1250    -0.6450    -0.0240 ca         1 80R       0.258600
      7 C13          5.2490     1.1860     0.4130 c          1 80R       0.804500
      8 C1           3.4140    -1.4820    -1.2110 ca         1 80R      -0.110000
      9 C2           2.0720    -1.7890    -1.0060 ca         1 80R      -0.145000
     10 C3          -1.0370     0.6840    -0.4770 ca         1 80R      -0.225000
     11 C9           1.2970    -1.0690    -0.0990 ca         1 80R       0.131600
     12 C11         -3.4030     0.9740    -0.2660 ca         1 80R      -0.244200
     13 C12         -2.4180    -1.1260     0.2870 ca         1 80R      -0.085600
     14 N14          5.2010     0.1390    -0.4740 ns         1 80R      -0.457100
     15 N15          3.9850     1.2630     0.9470 ns         1 80R      -0.457100
     16 N16         -0.0460    -1.4500     0.1010 nu         1 80R      -0.642000
     17 N17         -4.5690     1.8020    -0.3830 no         1 80R       0.326200
     18 O18         -5.6480     1.3230    -0.1030 o          1 80R      -0.218000
     19 O20         -4.4250     2.9460    -0.7570 o          1 80R      -0.218000
     20 CL1         -2.5960    -2.7590     0.8350 cl         1 80R      -0.098400
     21 H1          -2.0340     2.4940    -0.9510 ha         1 80R       0.169000
     22 H2           1.2540     0.5230     1.3700 ha         1 80R       0.156000
     23 H3          -4.5050    -0.7490     0.4240 ha         1 80R       0.181000
     24 H4           4.0100    -2.0490    -1.9120 ha         1 80R       0.149000
     25 H5           1.6210    -2.6010    -1.5610 ha         1 80R       0.144000
     26 H6          -0.0750     1.0920    -0.7530 ha         1 80R       0.155000
     27 H7           5.9910    -0.1450    -1.0320 hn         1 80R       0.358500
     28 H8           3.7190     1.9510     1.6330 hn         1 80R       0.359500
     29 H9          -0.2160    -2.4350     0.2310 hn         1 80R       0.459800
     30 O19          6.2050     1.8930     0.6720 o          1 80R      -0.625500
@<TRIPOS>BOND
     1     1    10 ar  
     2     1    12 ar  
     3     1    21 1   
     4     2     5 ar  
     5     2    11 ar  
     6     2    22 1   
     7     3    12 ar  
     8     3    13 ar  
     9     3    23 1   
    10     4     5 ar  
    11     4     8 ar  
    12     4    14 1   
    13     5    15 1   
    14     6    10 ar  
    15     6    13 ar  
    16     6    16 1   
    17     7    14 1   
    18     7    15 1   
    19     7    30 2   
    20     8     9 ar  
    21     8    24 1   
    22     9    11 ar  
    23     9    25 1   
    24    10    26 1   
    25    11    16 1   
    26    12    17 1   
    27    13    20 1   
    28    14    27 1   
    29    15    28 1   
    30    16    29 1   
    31    17    18 1   
    32    17    19 1   
@<TRIPOS>SUBSTRUCTURE
     1 80R         1 TEMP              0 ****  ****    0 ROOT
