@<TRIPOS>MOLECULE
80R
   30    32     1     0     0
SMALL
No Charge or Current Charge


@<TRIPOS>ATOM
      1 C4          -2.3470     1.5840    -0.5710 ca         1 80R       0.011000
      2 C5           1.8330     0.1380     0.2770 ca         1 80R      -0.125000
      3 C6          -3.5750    -0.3550     0.2520 ca         1 80R       0.018000
      4 C7           4.0790    -0.5540    -0.3420 ca         1 80R       0.003600
      5 C8           3.2140     0.3400     0.2510 ca         1 80R       0.020600
      6 C10         -1.1930    -0.5470    -0.2640 ca         1 80R       0.397000
      7 C13          5.3630     1.1730     0.5240 c          1 80R       0.595000
      8 C1           3.6310    -1.7260    -0.9530 ca         1 80R      -0.092000
      9 C2           2.2350    -1.9580    -0.9430 ca         1 80R      -0.127000
     10 C3          -1.1810     0.8040    -0.6480 ca         1 80R      -0.207000
     11 C9           1.3370    -1.0320    -0.3470 ca         1 80R       0.270000
     12 C11         -3.5560     1.0110    -0.1150 ca         1 80R      -0.244200
     13 C12         -2.4040    -1.1290     0.1720 ca         1 80R       0.006000
     14 N14          5.3620    -0.0140    -0.1560 ns         1 80R      -0.503600
     15 N15          4.0290     1.3640     0.7620 ns         1 80R      -0.503600
     16 N16         -0.0300    -1.3250    -0.3550 nu         1 80R      -0.974000
     17 N17         -4.8020     1.8340    -0.0300 no         1 80R       0.706200
     18 O18         -5.8370     1.2880     0.3710 o          1 80R      -0.408000
     19 O20         -4.7400     3.0250    -0.3630 o          1 80R      -0.408000
     20 Cl1         -2.4810    -2.8360     0.6320 cl         1 80R      -0.190000
     21 H1          -2.3030     2.6290    -0.8760 ha         1 80R       0.151000
     22 H2           1.1760     0.8430     0.7750 ha         1 80R       0.138000
     23 H3          -4.4920    -0.8280     0.5990 ha         1 80R       0.163000
     24 H4           4.3220    -2.4300    -1.4110 ha         1 80R       0.131000
     25 H5           1.8460    -2.8600    -1.4090 ha         1 80R       0.126000
     26 H6          -0.2700     1.2540    -1.0280 ha         1 80R       0.137000
     27 H7           6.2190    -0.4480    -0.4840 hn         1 80R       0.472000
     28 H8           3.6830     2.1760     1.2620 hn         1 80R       0.473000
     29 H9          -0.2370    -2.3250    -0.3920 hn         1 80R       0.515000
     30 O19          6.3050     1.8750     0.8370 o          1 80R      -0.550000
@<TRIPOS>BOND
     1     1    10 ar  
     2     1    12 ar  
     3     1    21 1   
     4     2     5 ar  
     5     2    11 ar  
     6     2    22 1   
     7     3    12 ar  
     8     3    13 ar  
     9     3    23 1   
    10     4     5 ar  
    11     4     8 ar  
    12     4    14 1   
    13     5    15 1   
    14     6    10 ar  
    15     6    13 ar  
    16     6    16 1   
    17     7    14 1   
    18     7    15 1   
    19     7    30 2   
    20     8     9 ar  
    21     8    24 1   
    22     9    11 ar  
    23     9    25 1   
    24    10    26 1   
    25    11    16 1   
    26    12    17 1   
    27    13    20 1   
    28    14    27 1   
    29    15    28 1   
    30    16    29 1   
    31    17    18 1   
    32    17    19 1   
@<TRIPOS>SUBSTRUCTURE
     1 80R         1 TEMP              0 ****  ****    0 ROOT
