@<TRIPOS>MOLECULE
80U
   60    64     1     0     0
SMALL
abcg2


@<TRIPOS>ATOM
      1 C4          -2.6030     2.2240     0.1510 ca         1 80U       0.163500
      2 C5          -1.2240     2.4070     0.0290 ca         1 80U      -0.382900
      3 C6          -0.8180     3.6900    -0.4080 ca         1 80U       0.456900
      4 N1          -1.7510     4.6270    -0.5930 nb         1 80U      -0.310000
      5 N3          -3.5440     3.1510    -0.0450 nb         1 80U      -0.228000
      6 C2          -3.0300     4.3120    -0.3960 ca         1 80U       0.198900
      7 CAA          6.6630    -0.5360    -1.8670 c3         1 80U       0.057900
      8 CAH          8.8900    -1.4210     0.8030 cc         1 80U       0.230900
      9 CAJ          1.6990     1.4750     1.0340 ca         1 80U      -0.068000
     10 CAK          3.0230     1.0650     1.0880 ca         1 80U      -0.199000
     11 CAL          8.6050    -1.3890    -0.5320 cd         1 80U      -0.219000
     12 CAM          1.1230    -0.4860    -0.2150 ca         1 80U      -0.039000
     13 CAN         -5.4520    -1.0020     2.3790 c6         1 80U      -0.094400
     14 CAO         -8.5470    -2.7090    -1.5590 c2         1 80U      -0.236000
     15 CAP         -7.7370    -2.2400    -0.6170 ce         1 80U      -0.295200
     16 CAQ         -4.1570    -0.2220     2.1800 c6         1 80U      -0.088400
     17 CAR         -5.5740    -2.1150     1.3490 c6         1 80U       0.104000
     18 CAU         -4.2170    -0.9030    -0.2510 c6         1 80U       0.081000
     19 CBD          2.4410    -0.8920    -0.1650 ca         1 80U       0.073000
     20 CBE          0.7370     0.7150     0.3790 ca         1 80U      -0.130900
     21 CBF          3.4140    -0.1280     0.4880 ca         1 80U       0.156100
     22 CBG          6.9970    -0.4610     0.6170 cd         1 80U       0.379800
     23 CBH         -0.6670     1.1360     0.3360 cc         1 80U       0.437500
     24 CBL         -4.0480     0.2570     0.7360 c6         1 80U       0.088300
     25 NAB          0.4530     4.0190    -0.6460 nv         1 80U      -1.067900
     26 NAW          7.8780    -0.8420     1.5100 nc         1 80U      -0.654000
     27 NAY         -1.6270     0.2820     0.6020 nd         1 80U      -0.520100
     28 NBM         -5.4780    -1.5700     0.0030 n          1 80U      -0.412800
     29 NBN          7.3960    -0.7670    -0.6400 na         1 80U      -0.144500
     30 NBO         -2.7930     0.9340     0.4890 na         1 80U      -0.017100
     31 OAE         -6.1970    -1.2710    -2.1160 o          1 80U      -0.603100
     32 OAZ          4.6610    -0.6130     0.4900 os         1 80U      -0.331100
     33 H1          -3.7370     5.1180    -0.5600 h5         1 80U       0.048100
     34 H2           5.8880    -1.2860    -2.0090 h1         1 80U       0.056700
     35 H3           6.2030     0.4500    -1.8520 h1         1 80U       0.056700
     36 H4           7.3530    -0.5760    -2.7050 h1         1 80U       0.056700
     37 H5           9.7650    -1.8270     1.2850 h4         1 80U       0.041100
     38 H6           1.4200     2.3910     1.5410 ha         1 80U       0.126000
     39 H7           3.7370     1.6770     1.6210 ha         1 80U       0.125000
     40 H8           9.1450    -1.7430    -1.3950 h4         1 80U       0.158000
     41 H9           0.3960    -1.0930    -0.7370 ha         1 80U       0.144000
     42 H10         -5.4780    -1.4330     3.3810 hc         1 80U       0.053200
     43 H11         -6.3140    -0.3360     2.2910 hc         1 80U       0.053200
     44 H12         -9.5160    -3.1170    -1.3050 ha         1 80U       0.175000
     45 H13         -8.2740    -2.7110    -2.6060 ha         1 80U       0.175000
     46 H15         -8.0610    -2.2590     0.4150 ha         1 80U       0.179000
     47 H17         -4.1130     0.6330     2.8580 hc         1 80U       0.060200
     48 H18         -3.3030    -0.8650     2.4130 hc         1 80U       0.060200
     49 H19         -4.7600    -2.8370     1.4820 h1         1 80U       0.051200
     50 H20         -6.4970    -2.6700     1.4810 h1         1 80U       0.051200
     51 H21          5.6720     0.4220     1.9940 h1         1 80U       0.060200
     52 H22          5.6620     1.1980     0.4020 h1         1 80U       0.060200
     53 H23         -4.1890    -0.5360    -1.2730 h1         1 80U       0.075700
     54 H24         -3.3960    -1.6160    -0.1250 h1         1 80U       0.075700
     55 H25         -4.8270     0.9970     0.5400 h1         1 80U       0.095700
     56 H26          1.1830     3.3290    -0.6690 hn         1 80U       0.501000
     57 H27          0.6580     4.9210    -1.0430 hn         1 80U       0.501000
     58 CLA          2.9160    -2.3670    -0.9280 cl         1 80U      -0.179000
     59 CAS          5.7220     0.2340     0.9180 c3         1 80U       0.139300
     60 CBB         -6.4120    -1.6580    -0.9730 c          1 80U       0.611300
@<TRIPOS>BOND
     1     1     2 ar  
     2     1     5 ar  
     3     1    30 1   
     4     2     3 ar  
     5     2    23 1   
     6     3     4 ar  
     7     3    25 1   
     8     4     6 ar  
     9     5     6 ar  
    10     6    33 1   
    11     7    29 1   
    12     7    34 1   
    13     7    35 1   
    14     7    36 1   
    15     8    11 2   
    16     8    26 1   
    17     8    37 1   
    18     9    10 ar  
    19     9    20 ar  
    20     9    38 1   
    21    10    21 ar  
    22    10    39 1   
    23    11    29 1   
    24    11    40 1   
    25    12    19 ar  
    26    12    20 ar  
    27    12    41 1   
    28    13    16 1   
    29    13    17 1   
    30    13    42 1   
    31    13    43 1   
    32    14    15 2   
    33    14    44 1   
    34    14    45 1   
    35    15    46 1   
    36    15    60 1   
    37    16    24 1   
    38    16    47 1   
    39    16    48 1   
    40    17    28 1   
    41    17    49 1   
    42    17    50 1   
    43    18    24 1   
    44    18    28 1   
    45    18    53 1   
    46    18    54 1   
    47    19    21 ar  
    48    19    58 1   
    49    20    23 1   
    50    21    32 1   
    51    22    26 2   
    52    22    29 1   
    53    22    59 1   
    54    23    27 2   
    55    24    30 1   
    56    24    55 1   
    57    25    56 1   
    58    25    57 1   
    59    27    30 1   
    60    28    60 1   
    61    31    60 2   
    62    32    59 1   
    63    51    59 1   
    64    52    59 1   
@<TRIPOS>SUBSTRUCTURE
     1 80U         1 TEMP              0 ****  ****    0 ROOT
