@<TRIPOS>MOLECULE
80U
   60    64     1     0     0
SMALL
No Charge or Current Charge


@<TRIPOS>ATOM
      1 C4          -2.6090     2.1190     0.2020 ca         1 80U       0.163500
      2 C5          -1.2610     2.2640     0.0270 ca         1 80U      -0.382900
      3 C6          -0.7560     3.4990    -0.3680 ca         1 80U       0.456900
      4 N1          -1.5710     4.5530    -0.5170 nb         1 80U      -0.310000
      5 N3          -3.4600     3.1530     0.0590 nb         1 80U      -0.228000
      6 C2          -2.8870     4.3320    -0.2820 ca         1 80U       0.198900
      7 CAA          7.1920    -0.3060    -1.9000 c3         1 80U       0.057900
      8 CAH          9.1020    -1.2890     1.0190 cc         1 80U       0.230900
      9 CAJ          1.6740     1.3860     0.9470 ca         1 80U      -0.068000
     10 CAK          3.0350     1.0340     0.9610 ca         1 80U      -0.199000
     11 CAL          8.9990    -1.2060    -0.3440 cd         1 80U      -0.219000
     12 CAM          1.1900    -0.5230    -0.4750 ca         1 80U      -0.039000
     13 CAN         -5.6550    -0.9660     2.4190 c6         1 80U      -0.094400
     14 CAO         -9.0430    -2.5890    -1.3940 c2         1 80U      -0.236000
     15 CAP         -8.1500    -2.0330    -0.5370 ce         1 80U      -0.295200
     16 CAQ         -4.2900    -0.2650     2.1870 c6         1 80U      -0.088400
     17 CAR         -5.8500    -2.1260     1.4140 c6         1 80U       0.104000
     18 CAU         -4.3920    -1.0220    -0.2530 c6         1 80U       0.081000
     19 CBD          2.5490    -0.8800    -0.4620 ca         1 80U       0.073000
     20 CBE          0.7450     0.6300     0.2030 ca         1 80U      -0.130900
     21 CBF          3.4830    -0.1010     0.2500 ca         1 80U       0.156100
     22 CBG          7.1940    -0.3700     0.6600 cd         1 80U       0.379800
     23 CBH         -0.6830     0.9560     0.2300 cc         1 80U       0.437500
     24 CBL         -4.1300     0.1730     0.7030 c6         1 80U       0.088300
     25 NAB          0.5380     3.7230    -0.6750 nv         1 80U      -1.067900
     26 NAW          7.9980    -0.7740     1.6370 nc         1 80U      -0.654000
     27 NAY         -1.6180     0.0290     0.4650 nd         1 80U      -0.520100
     28 NBM         -5.7280    -1.6240     0.0190 n          1 80U      -0.412800
     29 NBN          7.7710    -0.6110    -0.5820 na         1 80U      -0.144500
     30 NBO         -2.7940     0.7740     0.4640 na         1 80U      -0.017100
     31 OAE         -6.5480    -1.2680    -2.0920 o          1 80U      -0.603100
     32 OAZ          4.8110    -0.4830     0.2380 os         1 80U      -0.331100
     33 H1          -3.5550     5.1840    -0.4010 h5         1 80U       0.048100
     34 H2           6.3370    -0.9670    -2.0880 h1         1 80U       0.056700
     35 H3           6.8550     0.7380    -1.9230 h1         1 80U       0.056700
     36 H4           7.9440    -0.4580    -2.6830 h1         1 80U       0.056700
     37 H5           9.9180    -1.6930     1.6050 h4         1 80U       0.041100
     38 H6           1.3370     2.2440     1.5260 ha         1 80U       0.126000
     39 H7           3.7210     1.6460     1.5390 ha         1 80U       0.125000
     40 H8           9.6840    -1.5150    -1.1240 h4         1 80U       0.158000
     41 H9           0.4810    -1.1410    -1.0220 ha         1 80U       0.144000
     42 H10         -5.7120    -1.3480     3.4470 hc         1 80U       0.053200
     43 H11         -6.4720    -0.2400     2.3060 hc         1 80U       0.053200
     44 H12        -10.0240    -2.9300    -1.0600 ha         1 80U       0.175000
     45 H13         -8.8200    -2.7220    -2.4540 ha         1 80U       0.175000
     46 H15         -8.4070    -1.9540     0.5160 ha         1 80U       0.179000
     47 H17         -4.1980     0.6070     2.8480 hc         1 80U       0.060200
     48 H18         -3.4770    -0.9530     2.4620 hc         1 80U       0.060200
     49 H19         -5.0670    -2.8780     1.5830 h1         1 80U       0.051200
     50 H20         -6.8030    -2.6340     1.5970 h1         1 80U       0.051200
     51 H21          5.6580     0.3410     1.9720 h1         1 80U       0.060200
     52 H22          5.8810     1.3040     0.4940 h1         1 80U       0.060200
     53 H23         -4.3160    -0.6750    -1.2930 h1         1 80U       0.075700
     54 H24         -3.6180    -1.7890    -0.1110 h1         1 80U       0.075700
     55 H25         -4.8930     0.9340     0.4920 h1         1 80U       0.095700
     56 H26          1.1420     2.9220    -0.8330 hn         1 80U       0.501000
     57 H27          0.7710     4.5780    -1.1720 hn         1 80U       0.501000
     58 ClA          3.0650    -2.3160    -1.3500 cl         1 80U      -0.179000
     59 CAS          5.8450     0.2830     0.8920 c3         1 80U       0.139300
     60 CBB         -6.7750    -1.5900    -0.9330 c          1 80U       0.611300
@<TRIPOS>BOND
     1     1     2 ar  
     2     1     5 ar  
     3     1    30 1   
     4     2     3 ar  
     5     2    23 1   
     6     3     4 ar  
     7     3    25 1   
     8     4     6 ar  
     9     5     6 ar  
    10     6    33 1   
    11     7    29 1   
    12     7    34 1   
    13     7    35 1   
    14     7    36 1   
    15     8    11 2   
    16     8    26 1   
    17     8    37 1   
    18     9    10 ar  
    19     9    20 ar  
    20     9    38 1   
    21    10    21 ar  
    22    10    39 1   
    23    11    29 1   
    24    11    40 1   
    25    12    19 ar  
    26    12    20 ar  
    27    12    41 1   
    28    13    16 1   
    29    13    17 1   
    30    13    42 1   
    31    13    43 1   
    32    14    15 2   
    33    14    44 1   
    34    14    45 1   
    35    15    46 1   
    36    15    60 1   
    37    16    24 1   
    38    16    47 1   
    39    16    48 1   
    40    17    28 1   
    41    17    49 1   
    42    17    50 1   
    43    18    24 1   
    44    18    28 1   
    45    18    53 1   
    46    18    54 1   
    47    19    21 ar  
    48    19    58 1   
    49    20    23 1   
    50    21    32 1   
    51    22    26 2   
    52    22    29 1   
    53    22    59 1   
    54    23    27 2   
    55    24    30 1   
    56    24    55 1   
    57    25    56 1   
    58    25    57 1   
    59    27    30 1   
    60    28    60 1   
    61    31    60 2   
    62    32    59 1   
    63    51    59 1   
    64    52    59 1   
@<TRIPOS>SUBSTRUCTURE
     1 80U         1 TEMP              0 ****  ****    0 ROOT
