@<TRIPOS>MOLECULE
80W
   20    20     1     0     0
SMALL
abcg2


@<TRIPOS>ATOM
      1 C01         22.3170    80.2320    82.1520 cc         1 80W       0.083900
      2 C02         21.8110    81.6420    82.2190 c          1 80W       0.547500
      3 C03         21.1820    82.2480    83.3730 cc         1 80W      -0.312200
      4 C04         21.1450    81.8710    84.6660 cd         1 80W       0.044800
      5 C05         21.6800    80.6290    85.2310 cd         1 80W      -0.191200
      6 C06         21.8000    79.3420    84.4750 c          1 80W       0.596500
      7 C09         20.5150    82.8230    85.6410 c3         1 80W      -0.075900
      8 C10         22.0680    80.5830    86.5140 c2         1 80W      -0.212000
      9 C12         22.2530    79.2770    83.0960 cd         1 80W      -0.340200
     10 O07         21.9240    82.2790    81.1820 o          1 80W      -0.538100
     11 O08         22.8090    79.9290    80.9600 oh         1 80W      -0.519100
     12 O11         21.5980    78.2990    85.0720 o          1 80W      -0.524100
     13 H2          20.7450    83.2100    83.1300 ha         1 80W       0.201000
     14 H5          19.8160    82.3100    86.3010 hc         1 80W       0.055367
     15 H6          21.2710    83.2940    86.2710 hc         1 80W       0.055367
     16 H7          19.9850    83.6190    85.1220 hc         1 80W       0.055367
     17 H8          22.0310    81.4470    87.1610 ha         1 80W       0.180000
     18 H9          22.4770    79.6810    86.9450 ha         1 80W       0.180000
     19 H10         22.5700    78.2840    82.7960 ha         1 80W       0.216000
     20 H12         22.7280    80.7220    80.3980 ho         1 80W       0.496000
@<TRIPOS>BOND
     1     1     2 1   
     2     1     9 2   
     3     1    11 1   
     4     2     3 1   
     5     2    10 2   
     6     3     4 2   
     7     3    13 1   
     8     4     5 1   
     9     4     7 1   
    10     5     6 1   
    11     5     8 2   
    12     6     9 1   
    13     6    12 2   
    14     7    14 1   
    15     7    15 1   
    16     7    16 1   
    17     8    17 1   
    18     8    18 1   
    19     9    19 1   
    20    11    20 1   
@<TRIPOS>SUBSTRUCTURE
     1 80W         1 TEMP              0 ****  ****    0 ROOT
