@<TRIPOS>MOLECULE
80W
   20    20     1     0     0
SMALL
No Charge or Current Charge


@<TRIPOS>ATOM
      1 C01         22.0960    80.1920    82.0610 cc         1 80W       0.083900
      2 C02         22.0220    81.6660    82.2420 c          1 80W       0.547500
      3 C03         21.2570    82.2230    83.3570 cc         1 80W      -0.312200
      4 C04         21.1920    81.8780    84.6940 cd         1 80W       0.044800
      5 C05         21.7320    80.6320    85.2360 cd         1 80W      -0.191200
      6 C06         22.2160    79.3920    84.5080 c          1 80W       0.596500
      7 C09         20.5370    82.8930    85.6170 c3         1 80W      -0.075900
      8 C10         21.7830    80.4930    86.6130 c2         1 80W      -0.212000
      9 C12         22.2400    79.2550    83.0450 cd         1 80W      -0.340200
     10 O07         22.3390    82.4120    81.3200 o          1 80W      -0.538100
     11 O08         22.3070    79.8210    80.7730 oh         1 80W      -0.519100
     12 O11         22.5790    78.3990    85.1300 o          1 80W      -0.524100
     13 H2          20.9080    83.2150    83.0920 ha         1 80W       0.201000
     14 H5          19.7760    82.4220    86.2500 hc         1 80W       0.055367
     15 H6          21.2790    83.3720    86.2670 hc         1 80W       0.055367
     16 H7          20.0270    83.6940    85.0690 hc         1 80W       0.055367
     17 H8          21.4760    81.2670    87.3140 ha         1 80W       0.180000
     18 H9          22.1500    79.6000    87.1190 ha         1 80W       0.180000
     19 H10         22.4670    78.2390    82.7470 ha         1 80W       0.216000
     20 H12         22.3420    80.6570    80.2510 ho         1 80W       0.496000
@<TRIPOS>BOND
     1     1     2 1   
     2     1     9 2   
     3     1    11 1   
     4     2     3 1   
     5     2    10 2   
     6     3     4 2   
     7     3    13 1   
     8     4     5 1   
     9     4     7 1   
    10     5     6 1   
    11     5     8 2   
    12     6     9 1   
    13     6    12 2   
    14     7    14 1   
    15     7    15 1   
    16     7    16 1   
    17     8    17 1   
    18     8    18 1   
    19     9    19 1   
    20    11    20 1   
@<TRIPOS>SUBSTRUCTURE
     1 80W         1 TEMP              0 ****  ****    0 ROOT
