@<TRIPOS>MOLECULE
80X
   37    38     1     0     0
SMALL
abcg2


@<TRIPOS>ATOM
      1 N1          24.1910    -3.6530     9.6840 n          1 80X      -0.423800
      2 N3          25.4740    -2.6790    14.2220 ns         1 80X      -0.133000
      3 C4          24.7560    -5.1910    11.5470 c          1 80X       0.551000
      4 C5          24.8520    -2.7240    11.8850 c3         1 80X      -0.172400
      5 C6          24.4410    -2.6980    13.3420 c          1 80X       0.627100
      6 C7          25.4430    -2.6340    15.6160 ca         1 80X      -0.003000
      7 C8          26.6690    -2.7410    16.2790 ca         1 80X      -0.169000
      8 C10         25.5740    -2.5490    18.4180 ca         1 80X      -0.132000
      9 C13         23.1920    -3.0550     8.9790 c          1 80X       0.614100
     10 C1          24.1540    -3.8570    11.1140 c6         1 80X       0.039700
     11 C11         24.3690    -2.4420    17.7460 ca         1 80X       0.147000
     12 C12         24.2750    -2.4820    16.3640 ca         1 80X      -0.127000
     13 C14         21.9770    -2.6040     9.7540 c3         1 80X      -0.181100
     14 C2          25.3750    -4.1600     9.0230 c6         1 80X       0.076000
     15 C3          25.4250    -5.6600     9.2030 c6         1 80X       0.092000
     16 C9          26.7270    -2.6990    17.6590 ca         1 80X      -0.074000
     17 N2          25.2860    -5.9820    10.6090 ns         1 80X      -0.501900
     18 O1          24.7360    -5.4810    12.7360 o          1 80X      -0.558000
     19 O2          23.2680    -2.6470    13.6630 o          1 80X      -0.579100
     20 O3          23.2660    -2.8980     7.7710 o          1 80X      -0.591100
     21 CL1         22.9080    -2.2430    18.6600 cl         1 80X      -0.203000
     22 H1          26.3970    -2.7560    13.8240 hn         1 80X       0.151000
     23 H2          25.9340    -2.7810    11.7550 hc         1 80X       0.069200
     24 H3          24.5340    -1.7710    11.4540 hc         1 80X       0.069200
     25 H4          27.5820    -2.8580    15.7070 ha         1 80X       0.111000
     26 H5          25.6180    -2.5160    19.4980 ha         1 80X       0.131000
     27 H6          23.1140    -3.9020    11.4390 h1         1 80X       0.107700
     28 H7          23.3130    -2.3920    15.8880 ha         1 80X       0.163000
     29 H8          21.3230    -2.0470     9.0880 hc         1 80X       0.069367
     30 H9          21.4180    -3.4580    10.1400 hc         1 80X       0.069367
     31 H10         22.2250    -1.9670    10.6030 hc         1 80X       0.069367
     32 H11         26.2680    -3.6960     9.4520 h1         1 80X       0.071200
     33 H12         25.3450    -3.9060     7.9680 h1         1 80X       0.071200
     34 H13         24.6350    -6.1360     8.6160 h1         1 80X       0.054700
     35 H14         26.3810    -6.0470     8.8500 h1         1 80X       0.054700
     36 H15         27.6850    -2.7840    18.1540 ha         1 80X       0.117000
     37 H16         25.6400    -6.8740    10.9250 hn         1 80X       0.323500
@<TRIPOS>BOND
     1     1     9 1   
     2     1    10 1   
     3     1    14 1   
     4     2     5 1   
     5     2     6 1   
     6     2    22 1   
     7     3    10 1   
     8     3    17 1   
     9     3    18 2   
    10     4     5 1   
    11     4    10 1   
    12     4    23 1   
    13     4    24 1   
    14     5    19 2   
    15     6     7 ar  
    16     6    12 ar  
    17     7    16 ar  
    18     7    25 1   
    19     8    11 ar  
    20     8    16 ar  
    21     8    26 1   
    22     9    13 1   
    23     9    20 2   
    24    10    27 1   
    25    11    12 ar  
    26    11    21 1   
    27    12    28 1   
    28    13    29 1   
    29    13    30 1   
    30    13    31 1   
    31    14    15 1   
    32    14    32 1   
    33    14    33 1   
    34    15    17 1   
    35    15    34 1   
    36    15    35 1   
    37    16    36 1   
    38    17    37 1   
@<TRIPOS>SUBSTRUCTURE
     1 80X         1 TEMP              0 ****  ****    0 ROOT
