@<TRIPOS>MOLECULE
80X
   37    38     1     0     0
SMALL
No Charge or Current Charge


@<TRIPOS>ATOM
      1 N1          24.1560    -3.6400     9.6320 n          1 80X      -0.423800
      2 N3          25.3930    -2.6860    14.2180 ns         1 80X      -0.133000
      3 C4          24.7210    -5.1550    11.6460 c          1 80X       0.551000
      4 C5          24.7690    -2.6070    11.8380 c3         1 80X      -0.172400
      5 C6          24.3610    -2.4780    13.3110 c          1 80X       0.627100
      6 C7          25.4360    -2.6640    15.6390 ca         1 80X      -0.003000
      7 C8          26.6910    -2.8350    16.2540 ca         1 80X      -0.169000
      8 C10         25.6750    -2.6490    18.4550 ca         1 80X      -0.132000
      9 C13         23.1010    -3.1130     8.8470 c          1 80X       0.614100
     10 C1          24.0930    -3.8200    11.1220 c6         1 80X       0.039700
     11 C11         24.4190    -2.4820    17.8530 ca         1 80X       0.147000
     12 C12         24.2950    -2.4890    16.4540 ca         1 80X      -0.127000
     13 C14         21.8510    -2.5730     9.5430 c3         1 80X      -0.181100
     14 C2          25.4110    -4.1570     9.0260 c6         1 80X       0.076000
     15 C3          25.5870    -5.6620     9.3190 c6         1 80X       0.092000
     16 C9          26.8140    -2.8270    17.6540 ca         1 80X      -0.074000
     17 N2          25.3360    -5.9840    10.7340 ns         1 80X      -0.501900
     18 O1          24.6520    -5.4880    12.8180 o          1 80X      -0.558000
     19 O2          23.2150    -2.1770    13.6240 o          1 80X      -0.579100
     20 O3          23.1870    -3.0670     7.6280 o          1 80X      -0.591100
     21 Cl1         22.9920    -2.2640    18.8570 cl         1 80X      -0.203000
     22 H1          26.2820    -2.9050    13.7880 hn         1 80X       0.151000
     23 H2          25.8600    -2.6870    11.7530 hc         1 80X       0.069200
     24 H3          24.4520    -1.6830    11.3410 hc         1 80X       0.069200
     25 H4          27.5810    -2.9740    15.6440 ha         1 80X       0.111000
     26 H5          25.7640    -2.6430    19.5390 ha         1 80X       0.131000
     27 H6          23.0440    -3.8770    11.4410 h1         1 80X       0.107700
     28 H7          23.3050    -2.3630    16.0300 ha         1 80X       0.163000
     29 H8          21.1670    -2.0790     8.8440 hc         1 80X       0.069367
     30 H9          21.3470    -3.4000    10.0550 hc         1 80X       0.069367
     31 H10         22.1390    -1.9100    10.3660 hc         1 80X       0.069367
     32 H11         26.2640    -3.6060     9.4480 h1         1 80X       0.071200
     33 H12         25.4320    -3.9940     7.9390 h1         1 80X       0.071200
     34 H13         24.8770    -6.2360     8.7070 h1         1 80X       0.054700
     35 H14         26.6040    -5.9810     9.0480 h1         1 80X       0.054700
     36 H15         27.7900    -2.9590    18.1170 ha         1 80X       0.117000
     37 H16         25.7040    -6.8530    11.1050 hn         1 80X       0.323500
@<TRIPOS>BOND
     1     1     9 1   
     2     1    10 1   
     3     1    14 1   
     4     2     5 1   
     5     2     6 1   
     6     2    22 1   
     7     3    10 1   
     8     3    17 1   
     9     3    18 2   
    10     4     5 1   
    11     4    10 1   
    12     4    23 1   
    13     4    24 1   
    14     5    19 2   
    15     6     7 ar  
    16     6    12 ar  
    17     7    16 ar  
    18     7    25 1   
    19     8    11 ar  
    20     8    16 ar  
    21     8    26 1   
    22     9    13 1   
    23     9    20 2   
    24    10    27 1   
    25    11    12 ar  
    26    11    21 1   
    27    12    28 1   
    28    13    29 1   
    29    13    30 1   
    30    13    31 1   
    31    14    15 1   
    32    14    32 1   
    33    14    33 1   
    34    15    17 1   
    35    15    34 1   
    36    15    35 1   
    37    16    36 1   
    38    17    37 1   
@<TRIPOS>SUBSTRUCTURE
     1 80X         1 TEMP              0 ****  ****    0 ROOT
