@<TRIPOS>MOLECULE
80Y
   36    36     1     0     0
SMALL
bcc


@<TRIPOS>ATOM
      1 C51        100.9860   100.4550   103.3000 c6         1 80Y       0.356900
      2 C52         99.5580   100.8580   102.9410 c6         1 80Y       0.128100
      3 O53         99.5140   101.0870   101.5530 oh         1 80Y      -0.591800
      4 O72        101.3140    99.2300   102.6860 os         1 80Y      -0.402600
      5 C73        100.5060    98.1240   103.0430 c6         1 80Y       0.094100
      6 C74        100.9670    96.9300   102.2150 c3         1 80Y       0.215400
      7 O75        102.3540    96.6900   102.2770 os         1 80Y      -0.567200
      8 P76        103.0430    95.6250   103.3270 p5         1 80Y       1.393800
      9 O77        102.9530    96.4390   104.7540 os         1 80Y      -0.574200
     10 C78        103.5890    97.6970   104.8630 c3         1 80Y       0.188400
     11 C79        103.1270    98.3780   106.1410 c3         1 80Y       0.125800
     12 N80        103.3500    99.8180   106.0310 n8         1 80Y      -0.909800
     13 O81        104.4670    95.5340   102.8820 o          1 80Y      -0.810000
     14 O82        102.1780    94.4190   103.5060 o          1 80Y      -0.810000
     15 C83         99.0270    98.4180   102.7490 c6         1 80Y       0.083100
     16 O84         98.1830    97.4190   103.2870 oh         1 80Y      -0.611800
     17 C85         98.6040    99.7460   103.3650 c6         1 80Y       0.110100
     18 O86         97.3080   100.1210   102.9570 oh         1 80Y      -0.625800
     19 H63        101.6930   101.1690   102.8560 h2         1 80Y       0.062700
     20 H64         99.3080   101.7740   103.4960 h1         1 80Y       0.045700
     21 H83        100.6110    97.8940   104.1110 h1         1 80Y       0.069700
     22 H84        100.7260    97.1220   101.1640 h1         1 80Y       0.028700
     23 H85        100.3960    96.0490   102.5230 h1         1 80Y       0.028700
     24 H86        104.6790    97.5860   104.8710 h1         1 80Y       0.031700
     25 H87        103.3340    98.3420   104.0170 h1         1 80Y       0.031700
     26 H88        102.0550    98.2140   106.2650 h1         1 80Y       0.042700
     27 H89        103.6240    97.9330   107.0100 h1         1 80Y       0.042700
     28 H90        103.1850   100.2620   106.9270 hn         1 80Y       0.337800
     29 H91        104.3180   100.0110   105.8010 hn         1 80Y       0.337800
     30 H94         98.8970    98.4910   101.6600 h1         1 80Y       0.047700
     31 H95         98.0510    96.7280   102.6320 ho         1 80Y       0.410000
     32 H96         98.6550    99.6490   104.4580 h1         1 80Y       0.070700
     33 H97         96.7210    99.3700   103.0990 ho         1 80Y       0.417000
     34 H2          98.5940   101.2340   101.3090 ho         1 80Y       0.411000
     35 OXT        101.0650   100.4310   104.6760 oh         1 80Y      -0.683800
     36 HXT        101.9940   100.2990   105.0080 ho         1 80Y       0.477000
@<TRIPOS>BOND
     1     1     2 1   
     2     1     4 1   
     3     1    19 1   
     4     1    35 1   
     5     2     3 1   
     6     2    17 1   
     7     2    20 1   
     8     3    34 1   
     9     4     5 1   
    10     5     6 1   
    11     5    15 1   
    12     5    21 1   
    13     6     7 1   
    14     6    22 1   
    15     6    23 1   
    16     7     8 1   
    17     8     9 1   
    18     8    13 1   
    19     8    14 1   
    20     9    10 1   
    21    10    11 1   
    22    10    24 1   
    23    10    25 1   
    24    11    12 1   
    25    11    26 1   
    26    11    27 1   
    27    12    28 1   
    28    12    29 1   
    29    15    16 1   
    30    15    17 1   
    31    15    30 1   
    32    16    31 1   
    33    17    18 1   
    34    17    32 1   
    35    18    33 1   
    36    35    36 1   
@<TRIPOS>SUBSTRUCTURE
     1 80Y         1 TEMP              0 ****  ****    0 ROOT
