@<TRIPOS>MOLECULE
80Y
   36    36     1     0     0
SMALL
No Charge or Current Charge


@<TRIPOS>ATOM
      1 C51        100.7440   100.3500   103.7580 c6         1 80Y       0.403300
      2 C52         99.2960   100.8040   103.3350 c6         1 80Y       0.151300
      3 O53         99.2560   101.4580   102.0470 oh         1 80Y      -0.714000
      4 O72        101.2260    99.2920   102.9050 os         1 80Y      -0.449000
      5 C73        100.4110    98.0830   102.8880 c6         1 80Y       0.117300
      6 C74        101.1270    97.0410   101.9590 c3         1 80Y       0.238600
      7 O75        102.3730    96.5440   102.4920 os         1 80Y      -0.590400
      8 P76        102.4480    95.7610   103.9020 p5         1 80Y       1.393800
      9 O77        102.6890    97.0090   104.8900 os         1 80Y      -0.597400
     10 C78        104.0120    97.5580   104.9840 c3         1 80Y       0.211600
     11 C79        104.0280    98.6900   106.0510 c3         1 80Y       0.125800
     12 N80        103.4010    99.9690   105.6110 n8         1 80Y      -1.020200
     13 O81        103.6010    94.8130   103.9320 o          1 80Y      -0.810000
     14 O82        101.1650    95.0610   104.2040 o          1 80Y      -0.810000
     15 C83         98.9750    98.4360   102.3770 c6         1 80Y       0.106300
     16 O84         98.0880    97.2940   102.3760 oh         1 80Y      -0.734000
     17 C85         98.3610    99.5610   103.2690 c6         1 80Y       0.133300
     18 O86         97.0660    99.9340   102.7480 oh         1 80Y      -0.748000
     19 H63        101.4160   101.2180   103.6620 h2         1 80Y       0.062700
     20 H64         98.9120   101.4880   104.1070 h1         1 80Y       0.045700
     21 H83        100.3310    97.6720   103.9030 h1         1 80Y       0.069700
     22 H84        101.3020    97.5120   100.9830 h1         1 80Y       0.028700
     23 H85        100.4460    96.1980   101.7870 h1         1 80Y       0.028700
     24 H86        104.7240    96.7830   105.2990 h1         1 80Y       0.031700
     25 H87        104.3480    97.9540   104.0160 h1         1 80Y       0.031700
     26 H88        103.5220    98.3390   106.9620 h1         1 80Y       0.042700
     27 H89        105.0740    98.9010   106.3130 h1         1 80Y       0.042700
     28 H90        103.5670   100.6750   106.3430 hn         1 80Y       0.393000
     29 H91        103.9470   100.3350   104.8180 hn         1 80Y       0.393000
     30 H94         99.0710    98.8260   101.3520 h1         1 80Y       0.047700
     31 H95         98.2170    96.8130   101.5250 ho         1 80Y       0.509000
     32 H96         98.2550    99.1640   104.2900 h1         1 80Y       0.070700
     33 H97         96.6250    99.0710   102.5520 ho         1 80Y       0.516000
     34 H2          98.3270   101.2940   101.7490 ho         1 80Y       0.510000
     35 OXT        100.7950    99.8680   105.0980 oh         1 80Y      -0.806000
     36 HXT        101.7870    99.7780   105.2750 ho         1 80Y       0.576000
@<TRIPOS>BOND
     1     1     2 1   
     2     1     4 1   
     3     1    19 1   
     4     1    35 1   
     5     2     3 1   
     6     2    17 1   
     7     2    20 1   
     8     3    34 1   
     9     4     5 1   
    10     5     6 1   
    11     5    15 1   
    12     5    21 1   
    13     6     7 1   
    14     6    22 1   
    15     6    23 1   
    16     7     8 1   
    17     8     9 1   
    18     8    13 1   
    19     8    14 1   
    20     9    10 1   
    21    10    11 1   
    22    10    24 1   
    23    10    25 1   
    24    11    12 1   
    25    11    26 1   
    26    11    27 1   
    27    12    28 1   
    28    12    29 1   
    29    15    16 1   
    30    15    17 1   
    31    15    30 1   
    32    16    31 1   
    33    17    18 1   
    34    17    32 1   
    35    18    33 1   
    36    35    36 1   
@<TRIPOS>SUBSTRUCTURE
     1 80Y         1 TEMP              0 ****  ****    0 ROOT
