@<TRIPOS>MOLECULE
811
   60    65     1     0     0
SMALL
abcg2


@<TRIPOS>ATOM
      1 OBL         15.6120    47.4400    -7.6160 o          1 811      -0.714000
      2 CBK         16.4190    48.2680    -7.1560 c          1 811       0.714600
      3 OBM         16.9820    49.1990    -7.7600 o          1 811      -0.714000
      4 CBI         16.7560    48.1230    -5.6690 ca         1 811      -0.084600
      5 CBJ         17.6360    48.9940    -5.0590 ca         1 811      -0.179000
      6 CBH         16.1840    47.1120    -4.8910 ca         1 811      -0.168000
      7 CBG         16.5290    47.0380    -3.5560 ca         1 811       0.320900
      8 NBF         17.3770    47.8690    -2.9550 nb         1 811      -0.765000
      9 CBE         17.9220    48.8320    -3.6930 ca         1 811       0.555900
     10 NBB         18.7670    49.6890    -3.0550 nn         1 811      -0.770300
     11 CBC         19.8380    50.4650    -3.6520 cy         1 811       0.209800
     12 CBA         19.4870    49.4190    -1.8270 cy         1 811       0.209800
     13 CAZ         20.5840    50.4180    -2.2940 cy         1 811       0.174300
     14 OBD         21.8560    49.8520    -2.4340 oh         1 811      -0.639000
     15 CAD         20.6690    51.7390    -1.5630 ca         1 811      -0.099300
     16 CAC         21.3820    52.8130    -2.0990 ca         1 811       0.156000
     17 CLG         22.0660    52.7080    -3.6910 cl         1 811      -0.194000
     18 CAB         21.5660    54.0020    -1.4180 ca         1 811      -0.165000
     19 CAE         20.1410    51.9270    -0.2900 ca         1 811      -0.067000
     20 CAF         20.3130    53.1040     0.4190 ca         1 811      -0.129000
     21 CAA         21.0290    54.1500    -0.1430 ca         1 811       0.127100
     22 OAH         21.1360    55.3070     0.5550 os         1 811      -0.355100
     23 CAI         22.4370    55.8720     0.6930 c3         1 811       0.245900
     24 CAJ         23.2950    55.0810     1.6160 cc         1 811      -0.242300
     25 CAN         23.2590    55.0660     2.9780 cd         1 811       0.245300
     26 CAO         22.4250    55.7800     3.9380 cx         1 811      -0.194000
     27 CAP         21.9550    55.1060     5.2040 cx         1 811      -0.106900
     28 CAQ         22.9690    56.1910     5.2830 cx         1 811      -0.106900
     29 OAM         24.1770    54.2130     3.4310 os         1 811      -0.072700
     30 NAL         24.8410    53.6370     2.3910 nd         1 811      -0.337300
     31 CAK         24.3180    54.1420     1.3140 cc         1 811       0.345500
     32 CAR         24.7820    53.7030    -0.0110 ca         1 811      -0.128500
     33 CAS         25.5150    54.5500    -0.8400 ca         1 811       0.145500
     34 CLY         25.9240    56.1330    -0.2780 cl         1 811      -0.185000
     35 CAT         25.9380    54.1600    -2.1000 ca         1 811      -0.101000
     36 CAU         25.6220    52.8890    -2.5500 ca         1 811      -0.076000
     37 CAV         24.8980    52.0160    -1.7550 ca         1 811      -0.101000
     38 CAW         24.4900    52.4280    -0.4990 ca         1 811       0.145500
     39 CLX         23.5770    51.3320     0.4730 cl         1 811      -0.185000
     40 H2          18.0940    49.7910    -5.6290 ha         1 811       0.137000
     41 H3          15.4900    46.4030    -5.3190 ha         1 811       0.133000
     42 H4          16.1010    46.2640    -2.9260 h4         1 811      -0.013900
     43 H5          20.3820    49.9450    -4.4490 h1         1 811       0.060700
     44 H6          19.5360    51.4480    -4.0140 h1         1 811       0.060700
     45 H7          18.9250    49.6360    -0.9180 h1         1 811       0.060700
     46 H8          19.8750    48.3980    -1.7570 h1         1 811       0.060700
     47 H9          22.2590    49.7810    -1.5610 ho         1 811       0.441000
     48 H10         22.1140    54.8060    -1.8930 ha         1 811       0.130000
     49 H11         19.5930    51.1260     0.1860 ha         1 811       0.125000
     50 H12         19.8930    53.2100     1.4110 ha         1 811       0.126000
     51 H13         22.9270    55.9930    -0.2760 h1         1 811       0.061700
     52 H14         22.2730    56.8750     1.0870 h1         1 811       0.061700
     53 H15         21.7260    56.4620     3.4690 hc         1 811       0.104700
     54 H16         20.9410    55.3190     5.5150 hc         1 811       0.080950
     55 H17         22.2760    54.0890     5.3840 hc         1 811       0.080950
     56 H18         23.9910    55.9230     5.5180 hc         1 811       0.080950
     57 H19         22.6640    57.1610     5.6510 hc         1 811       0.080950
     58 H20         26.5080    54.8390    -2.7170 ha         1 811       0.140500
     59 H21         25.9430    52.5750    -3.5340 ha         1 811       0.129000
     60 H22         24.6460    51.0290    -2.1140 ha         1 811       0.140500
@<TRIPOS>BOND
     1     1     2 1   
     2     2     3 1   
     3     2     4 1   
     4     4     5 ar  
     5     4     6 ar  
     6     5     9 ar  
     7     5    40 1   
     8     6     7 ar  
     9     6    41 1   
    10     7     8 ar  
    11     7    42 1   
    12     8     9 ar  
    13     9    10 1   
    14    10    11 1   
    15    10    12 1   
    16    11    13 1   
    17    11    43 1   
    18    11    44 1   
    19    12    13 1   
    20    12    45 1   
    21    12    46 1   
    22    13    14 1   
    23    13    15 1   
    24    14    47 1   
    25    15    16 ar  
    26    15    19 ar  
    27    16    17 1   
    28    16    18 ar  
    29    18    21 ar  
    30    18    48 1   
    31    19    20 ar  
    32    19    49 1   
    33    20    21 ar  
    34    20    50 1   
    35    21    22 1   
    36    22    23 1   
    37    23    24 1   
    38    23    51 1   
    39    23    52 1   
    40    24    25 2   
    41    24    31 1   
    42    25    26 1   
    43    25    29 1   
    44    26    27 1   
    45    26    28 1   
    46    26    53 1   
    47    27    28 1   
    48    27    54 1   
    49    27    55 1   
    50    28    56 1   
    51    28    57 1   
    52    29    30 1   
    53    30    31 2   
    54    31    32 1   
    55    32    33 ar  
    56    32    38 ar  
    57    33    34 1   
    58    33    35 ar  
    59    35    36 ar  
    60    35    58 1   
    61    36    37 ar  
    62    36    59 1   
    63    37    38 ar  
    64    37    60 1   
    65    38    39 1   
@<TRIPOS>SUBSTRUCTURE
     1 811         1 TEMP              0 ****  ****    0 ROOT
