@<TRIPOS>MOLECULE
811
   60    65     1     0     0
SMALL
No Charge or Current Charge


@<TRIPOS>ATOM
      1 OBL         15.6980    47.4760    -7.9430 o          1 811      -0.714000
      2 CBK         16.6120    48.1120    -7.4360 c          1 811       0.714600
      3 OBM         17.3560    48.8380    -8.0820 o          1 811      -0.714000
      4 CBI         16.8320    47.9960    -5.9340 ca         1 811      -0.084600
      5 CBJ         17.8690    48.6960    -5.2760 ca         1 811      -0.179000
      6 CBH         16.0130    47.1830    -5.1210 ca         1 811      -0.168000
      7 CBG         16.2570    47.1070    -3.7410 ca         1 811       0.320900
      8 NBF         17.2510    47.7820    -3.1270 nb         1 811      -0.765000
      9 CBE         18.0380    48.5610    -3.8870 ca         1 811       0.555900
     10 NBB         19.0320    49.2250    -3.2200 nn         1 811      -0.770300
     11 CBC         19.8670    50.3910    -3.6120 cy         1 811       0.209800
     12 CBA         19.2500    49.4670    -1.7700 cy         1 811       0.209800
     13 CAZ         20.5180    50.3400    -2.1660 cy         1 811       0.174300
     14 OBD         21.7630    49.6310    -2.0970 oh         1 811      -0.639000
     15 CAD         20.7000    51.6800    -1.4290 ca         1 811      -0.099300
     16 CAC         21.3670    52.7800    -2.0270 ca         1 811       0.156000
     17 ClG         22.0280    52.7070    -3.6620 cl         1 811      -0.194000
     18 CAB         21.5400    53.9800    -1.3180 ca         1 811      -0.165000
     19 CAE         20.2230    51.8210    -0.1050 ca         1 811      -0.067000
     20 CAF         20.3850    53.0290     0.5920 ca         1 811      -0.129000
     21 CAA         21.0530    54.1040    -0.0070 ca         1 811       0.127100
     22 OAH         21.2090    55.2690     0.7090 os         1 811      -0.355100
     23 CAI         22.4930    55.9110     0.7870 c3         1 811       0.245900
     24 CAJ         23.3570    55.0720     1.6940 cc         1 811      -0.242300
     25 CAN         23.3780    55.0340     3.0510 cd         1 811       0.245300
     26 CAO         22.5920    55.8540     4.0150 cx         1 811      -0.194000
     27 CAP         22.1700    55.2960     5.3570 cx         1 811      -0.106900
     28 CAQ         23.2250    56.3760     5.2860 cx         1 811      -0.106900
     29 OAM         24.2260    54.0540     3.4870 os         1 811      -0.072700
     30 NAL         24.7860    53.4040     2.3410 nd         1 811      -0.337300
     31 CAK         24.2310    54.0250     1.3090 cc         1 811       0.345500
     32 CAR         24.6370    53.7070    -0.0630 ca         1 811      -0.128500
     33 CAS         25.2080    54.6900    -0.9080 ca         1 811       0.145500
     34 ClY         25.5890    56.3130    -0.3250 cl         1 811      -0.185000
     35 CAT         25.6050    54.3640    -2.2160 ca         1 811      -0.101000
     36 CAU         25.4570    53.0560    -2.6980 ca         1 811      -0.076000
     37 CAV         24.9260    52.0650    -1.8600 ca         1 811      -0.101000
     38 CAW         24.5280    52.3810    -0.5500 ca         1 811       0.145500
     39 ClX         23.8020    51.0930     0.4150 cl         1 811      -0.185000
     40 H2          18.5410    49.3380    -5.8370 ha         1 811       0.137000
     41 H3          15.1930    46.6110    -5.5470 ha         1 811       0.133000
     42 H4          15.6330    46.4830    -3.1020 h4         1 811      -0.013900
     43 H5          20.5830    50.2140    -4.4230 h1         1 811       0.060700
     44 H6          19.2990    51.3100    -3.8030 h1         1 811       0.060700
     45 H7          18.4460    50.0400    -1.2930 h1         1 811       0.060700
     46 H8          19.4910    48.5840    -1.1680 h1         1 811       0.060700
     47 H9          22.0770    49.6880    -1.1690 ho         1 811       0.441000
     48 H10         22.0430    54.8100    -1.8030 ha         1 811       0.130000
     49 H11         19.7280    50.9940     0.4000 ha         1 811       0.125000
     50 H12         20.0120    53.1260     1.6080 ha         1 811       0.126000
     51 H13         22.9360    56.0300    -0.2060 h1         1 811       0.061700
     52 H14         22.3880    56.9150     1.2190 h1         1 811       0.061700
     53 H15         21.8770    56.5120     3.5260 hc         1 811       0.104700
     54 H16         21.1880    55.5710     5.7350 hc         1 811       0.080950
     55 H17         22.4920    54.2920     5.6240 hc         1 811       0.080950
     56 H18         24.2530    56.0940     5.5020 hc         1 811       0.080950
     57 H19         22.9510    57.3760     5.6160 hc         1 811       0.080950
     58 H20         26.0500    55.1270    -2.8510 ha         1 811       0.140500
     59 H21         25.7650    52.8070    -3.7120 ha         1 811       0.129000
     60 H22         24.8100    51.0490    -2.2290 ha         1 811       0.140500
@<TRIPOS>BOND
     1     1     2 1   
     2     2     3 1   
     3     2     4 1   
     4     4     5 ar  
     5     4     6 ar  
     6     5     9 ar  
     7     5    40 1   
     8     6     7 ar  
     9     6    41 1   
    10     7     8 ar  
    11     7    42 1   
    12     8     9 ar  
    13     9    10 1   
    14    10    11 1   
    15    10    12 1   
    16    11    13 1   
    17    11    43 1   
    18    11    44 1   
    19    12    13 1   
    20    12    45 1   
    21    12    46 1   
    22    13    14 1   
    23    13    15 1   
    24    14    47 1   
    25    15    16 ar  
    26    15    19 ar  
    27    16    17 1   
    28    16    18 ar  
    29    18    21 ar  
    30    18    48 1   
    31    19    20 ar  
    32    19    49 1   
    33    20    21 ar  
    34    20    50 1   
    35    21    22 1   
    36    22    23 1   
    37    23    24 1   
    38    23    51 1   
    39    23    52 1   
    40    24    25 2   
    41    24    31 1   
    42    25    26 1   
    43    25    29 1   
    44    26    27 1   
    45    26    28 1   
    46    26    53 1   
    47    27    28 1   
    48    27    54 1   
    49    27    55 1   
    50    28    56 1   
    51    28    57 1   
    52    29    30 1   
    53    30    31 2   
    54    31    32 1   
    55    32    33 ar  
    56    32    38 ar  
    57    33    34 1   
    58    33    35 ar  
    59    35    36 ar  
    60    35    58 1   
    61    36    37 ar  
    62    36    59 1   
    63    37    38 ar  
    64    37    60 1   
    65    38    39 1   
@<TRIPOS>SUBSTRUCTURE
     1 811         1 TEMP              0 ****  ****    0 ROOT
