@<TRIPOS>MOLECULE
812
   43    45     1     0     0
SMALL
No Charge or Current Charge


@<TRIPOS>ATOM
      1 C1S          7.2280     0.8680    -0.5940 c5         1 812       0.151800
      2 N1T          5.7740     0.7020    -0.8180 n7         1 812      -0.858400
      3 C1R          7.7270    -0.5150    -0.0720 c5         1 812      -0.079400
      4 C1Q          6.4330    -1.3760    -0.0070 c5         1 812      -0.079400
      5 C1P          5.3540    -0.2890     0.2000 c5         1 812       0.163500
      6 C1O          3.8930    -0.7950     0.0320 c3         1 812       0.172600
      7 O1N          2.9950     0.3110     0.2620 os         1 812      -0.352100
      8 C1K          1.6240     0.1710     0.1910 ca         1 812       0.105100
      9 C1J          0.9970    -1.0580    -0.1140 ca         1 812      -0.132500
     10 C1I         -0.4070    -1.1350    -0.1710 ca         1 812      -0.139500
     11 C1H         -1.1980     0.0010     0.0720 ca         1 812       0.260000
     12 C1M         -0.5700     1.2250     0.3750 ca         1 812      -0.139500
     13 C1L          0.8330     1.3070     0.4340 ca         1 812      -0.132500
     14 N1          -2.5890    -0.1130     0.0070 nu         1 812      -0.933200
     15 C1G         -3.5860     0.9430     0.2250 c3         1 812       0.246100
     16 C1C         -4.9880     0.3760     0.0530 ca         1 812      -0.105300
     17 C1D         -5.6770    -0.1650     1.1570 ca         1 812      -0.094500
     18 C1E         -6.9730    -0.6870     0.9990 ca         1 812      -0.114500
     19 C1F         -7.5880    -0.6720    -0.2650 ca         1 812      -0.104000
     20 C1A         -6.9060    -0.1360    -1.3700 ca         1 812      -0.114500
     21 C1B         -5.6100     0.3870    -1.2120 ca         1 812      -0.094500
     22 H1S          7.7390     1.1760    -1.5170 h1         1 812       0.034700
     23 H1SA         7.4100     1.6450     0.1630 h1         1 812       0.034700
     24 HN1T         5.2780     1.5910    -0.6760 hn         1 812       0.425000
     25 H1R          8.4800    -0.9590    -0.7330 hc         1 812       0.048700
     26 H1RA         8.1880    -0.4100     0.9170 hc         1 812       0.048700
     27 H1Q          6.2730    -1.9270    -0.9420 hc         1 812       0.045200
     28 H1QA         6.4560    -2.1090     0.8080 hc         1 812       0.045200
     29 H1P          5.4470     0.1420     1.2080 h1         1 812       0.033700
     30 H1O          3.7620    -1.2010    -0.9790 h1         1 812       0.039200
     31 H1OA         3.7090    -1.5970     0.7590 h1         1 812       0.039200
     32 H1J          1.5770    -1.9560    -0.3070 ha         1 812       0.118000
     33 H1I         -0.8810    -2.0850    -0.4060 ha         1 812       0.112000
     34 H1M         -1.1610     2.1160     0.5670 ha         1 812       0.112000
     35 H1L          1.3110     2.2550     0.6680 ha         1 812       0.118000
     36 HN1         -2.9550    -1.0380    -0.2190 hn         1 812       0.458000
     37 H1G         -3.4810     1.3590     1.2360 h1         1 812       0.042200
     38 H1GA        -3.4320     1.7620    -0.4920 h1         1 812       0.042200
     39 H1D         -5.2060    -0.1820     2.1380 ha         1 812       0.117500
     40 H1E         -7.4990    -1.1030     1.8550 ha         1 812       0.113500
     41 H1F         -8.5910    -1.0760    -0.3870 ha         1 812       0.113000
     42 H1A         -7.3800    -0.1250    -2.3490 ha         1 812       0.113500
     43 H1B         -5.0870     0.7990    -2.0730 ha         1 812       0.117500
@<TRIPOS>BOND
     1     1     2 1   
     2     1     3 1   
     3     1    22 1   
     4     1    23 1   
     5     2     5 1   
     6     2    24 1   
     7     3     4 1   
     8     3    25 1   
     9     3    26 1   
    10     4     5 1   
    11     4    27 1   
    12     4    28 1   
    13     5     6 1   
    14     5    29 1   
    15     6     7 1   
    16     6    30 1   
    17     6    31 1   
    18     7     8 1   
    19     8     9 ar  
    20     8    13 ar  
    21     9    10 ar  
    22     9    32 1   
    23    10    11 ar  
    24    10    33 1   
    25    11    12 ar  
    26    11    14 1   
    27    12    13 ar  
    28    12    34 1   
    29    13    35 1   
    30    14    15 1   
    31    14    36 1   
    32    15    16 1   
    33    15    37 1   
    34    15    38 1   
    35    16    17 ar  
    36    16    21 ar  
    37    17    18 ar  
    38    17    39 1   
    39    18    19 ar  
    40    18    40 1   
    41    19    20 ar  
    42    19    41 1   
    43    20    21 ar  
    44    20    42 1   
    45    21    43 1   
@<TRIPOS>SUBSTRUCTURE
     1 812         1 TEMP              0 ****  ****    0 ROOT
