@<TRIPOS>MOLECULE
812
   43    45     1     0     0
SMALL
bcc


@<TRIPOS>ATOM
      1 C1S          7.0360     0.9230    -0.6440 c5         1 812       0.151800
      2 N1T          5.5860     0.8830    -0.5440 n7         1 812      -0.803200
      3 C1R          7.3920    -0.5530    -0.7780 c5         1 812      -0.079400
      4 C1Q          6.3370    -1.2630     0.0920 c5         1 812      -0.079400
      5 C1P          5.2830    -0.1810     0.4020 c5         1 812       0.163500
      6 C1O          3.8740    -0.7000     0.2310 c3         1 812       0.149400
      7 O1N          2.9750     0.3520     0.5250 os         1 812      -0.328900
      8 C1K          1.6470     0.1320     0.3690 ca         1 812       0.105100
      9 C1J          1.0830    -1.0930     0.0210 ca         1 812      -0.150500
     10 C1I         -0.2920    -1.2170    -0.1130 ca         1 812      -0.157500
     11 C1H         -1.1530    -0.1370     0.0970 ca         1 812       0.121600
     12 C1M         -0.5750     1.0850     0.4590 ca         1 812      -0.157500
     13 C1L          0.8000     1.2140     0.5850 ca         1 812      -0.150500
     14 N1          -2.5180    -0.2990    -0.0920 nu         1 812      -0.739600
     15 C1G         -3.4450     0.6990     0.3940 c3         1 812       0.246100
     16 C1C         -4.8590     0.3000     0.0700 ca         1 812      -0.105300
     17 C1D         -5.7900     0.0950     1.0810 ca         1 812      -0.112500
     18 C1E         -7.0970    -0.2710     0.7800 ca         1 812      -0.132500
     19 C1F         -7.4830    -0.4420    -0.5410 ca         1 812      -0.122000
     20 C1A         -6.5570    -0.2440    -1.5600 ca         1 812      -0.132500
     21 C1B         -5.2550     0.1230    -1.2560 ca         1 812      -0.112500
     22 H1S          7.3560     1.5190    -1.5010 h1         1 812       0.034700
     23 H1SA         7.5180     1.3460     0.2500 h1         1 812       0.034700
     24 HN1T         5.2040     1.7700    -0.2430 hn         1 812       0.369800
     25 H1R          7.3010    -0.8670    -1.8190 hc         1 812       0.048700
     26 H1RA         8.4120    -0.7640    -0.4600 hc         1 812       0.048700
     27 H1Q          5.8980    -2.1110    -0.4380 hc         1 812       0.045200
     28 H1QA         6.7640    -1.6530     1.0150 hc         1 812       0.045200
     29 H1P          5.4100     0.1480     1.4450 h1         1 812       0.033700
     30 H1O          3.7370    -1.0510    -0.8000 h1         1 812       0.039200
     31 H1OA         3.7070    -1.5510     0.9030 h1         1 812       0.039200
     32 H1J          1.6950    -1.9680    -0.1510 ha         1 812       0.136000
     33 H1I         -0.7030    -2.1800    -0.3940 ha         1 812       0.130000
     34 H1M         -1.1890     1.9560     0.6490 ha         1 812       0.130000
     35 H1L          1.2200     2.1720     0.8660 ha         1 812       0.136000
     36 HN1         -2.8330    -1.2430     0.0720 hn         1 812       0.402800
     37 H1G         -3.3500     0.8740     1.4750 h1         1 812       0.042200
     38 H1GA        -3.2230     1.6530    -0.0930 h1         1 812       0.042200
     39 H1D         -5.4920     0.2230     2.1150 ha         1 812       0.135500
     40 H1E         -7.8100    -0.4260     1.5790 ha         1 812       0.131500
     41 H1F         -8.4990    -0.7280    -0.7800 ha         1 812       0.131000
     42 H1A         -6.8520    -0.3740    -2.5930 ha         1 812       0.131500
     43 H1B         -4.5380     0.2750    -2.0540 ha         1 812       0.135500
@<TRIPOS>BOND
     1     1     2 1   
     2     1     3 1   
     3     1    22 1   
     4     1    23 1   
     5     2     5 1   
     6     2    24 1   
     7     3     4 1   
     8     3    25 1   
     9     3    26 1   
    10     4     5 1   
    11     4    27 1   
    12     4    28 1   
    13     5     6 1   
    14     5    29 1   
    15     6     7 1   
    16     6    30 1   
    17     6    31 1   
    18     7     8 1   
    19     8     9 ar  
    20     8    13 ar  
    21     9    10 ar  
    22     9    32 1   
    23    10    11 ar  
    24    10    33 1   
    25    11    12 ar  
    26    11    14 1   
    27    12    13 ar  
    28    12    34 1   
    29    13    35 1   
    30    14    15 1   
    31    14    36 1   
    32    15    16 1   
    33    15    37 1   
    34    15    38 1   
    35    16    17 ar  
    36    16    21 ar  
    37    17    18 ar  
    38    17    39 1   
    39    18    19 ar  
    40    18    40 1   
    41    19    20 ar  
    42    19    41 1   
    43    20    21 ar  
    44    20    42 1   
    45    21    43 1   
@<TRIPOS>SUBSTRUCTURE
     1 812         1 TEMP              0 ****  ****    0 ROOT
