@<TRIPOS>MOLECULE
813
   60    62     1     0     0
SMALL
No Charge or Current Charge


@<TRIPOS>ATOM
      1 C10         29.9120    77.0700    85.7980 c3         1 813      -0.076900
      2 C11         28.0890    80.7130    87.3640 c6         1 813      -0.072700
      3 C12         26.7990    80.3550    88.2140 c3         1 813      -0.104400
      4 C13         27.2130    83.5020    88.5890 c2         1 813      -0.229200
      5 C14         28.6200    83.1950    88.1160 c3         1 813      -0.040200
      6 C15         24.0270    82.5830    87.8740 c3         1 813      -0.033200
      7 C16         24.3860    81.9180    86.5460 c2         1 813      -0.221200
      8 C17         26.2050    83.8340    87.7630 c2         1 813      -0.193200
      9 C18         24.7210    83.9650    88.0970 c3         1 813      -0.008800
     10 C01         30.2530    79.5390    86.4570 cc         1 813      -0.239200
     11 C02         30.9150    80.7590    86.6390 cd         1 813       0.263100
     12 C03         32.0240    78.1790    85.2430 cd         1 813      -0.356200
     13 C04         32.2230    81.1760    86.2330 cd         1 813      -0.258000
     14 C05         33.1560    79.0810    85.0530 c          1 813       0.537500
     15 C07         33.1800    80.4770    85.5490 cc         1 813       0.092900
     16 C09         30.7840    78.3210    85.8290 cc         1 813       0.087800
     17 C19         24.0970    85.0390    87.1640 c3         1 813      -0.083100
     18 C20         24.5080    84.4230    89.5650 c3         1 813      -0.083100
     19 C21         25.5360    79.8280    87.4730 c3         1 813       0.212500
     20 C23         28.8140    79.4020    86.9660 c6         1 813      -0.031200
     21 C24         29.0830    81.6880    88.0700 c6         1 813       0.211000
     22 C25         29.4970    81.2210    89.4980 c3         1 813      -0.109100
     23 C27         25.0380    80.7520    86.3450 c2         1 813      -0.101400
     24 C28         25.3360    80.2640    84.9300 c3         1 813      -0.045900
     25 O08         34.3540    81.0920    85.2560 oh         1 813      -0.524100
     26 O22         30.3000    81.7830    87.3110 os         1 813      -0.371100
     27 O26         25.7500    78.4820    87.0270 oh         1 813      -0.658000
     28 H1          29.5230    76.8150    86.7900 hc         1 813       0.051033
     29 H2          29.0680    77.1900    85.1080 hc         1 813       0.051033
     30 H3          30.4630    76.1850    85.4610 hc         1 813       0.051033
     31 H4          27.7500    81.2170    86.4500 hc         1 813       0.075700
     32 H5          27.0630    79.6220    88.9860 hc         1 813       0.049700
     33 H6          26.4660    81.2080    88.7990 hc         1 813       0.049700
     34 H7          27.0540    83.3530    89.6580 ha         1 813       0.171000
     35 H8          29.3260    83.7740    88.7230 hc         1 813       0.060700
     36 H9          28.7290    83.6080    87.1060 hc         1 813       0.060700
     37 H10         22.9390    82.7150    87.9330 hc         1 813       0.045700
     38 H11         24.2780    81.9270    88.7130 hc         1 813       0.045700
     39 H12         24.0600    82.4960    85.6810 ha         1 813       0.172000
     40 H13         26.4140    83.9330    86.6960 ha         1 813       0.171000
     41 H15         32.2680    77.2180    84.8050 ha         1 813       0.195000
     42 H16         32.4910    82.1930    86.5020 ha         1 813       0.210000
     43 H17         23.0220    85.1470    87.3510 hc         1 813       0.036367
     44 H18         24.5680    86.0160    87.3300 hc         1 813       0.036367
     45 H19         24.2310    84.7830    86.1060 hc         1 813       0.036367
     46 H20         23.4440    84.5920    89.7700 hc         1 813       0.036367
     47 H21         24.8640    83.6690    90.2770 hc         1 813       0.036367
     48 H22         25.0430    85.3590    89.7640 hc         1 813       0.036367
     49 H23         24.7360    79.7920    88.2240 h1         1 813       0.032700
     50 H24         28.1830    78.9350    86.2010 hc         1 813       0.053700
     51 H25         28.6520    81.2670    90.1950 hc         1 813       0.048033
     52 H26         29.8710    80.1910    89.4970 hc         1 813       0.048033
     53 H27         30.2920    81.8550    89.9090 hc         1 813       0.048033
     54 H28         26.4060    80.0710    84.7870 hc         1 813       0.044033
     55 H29         24.7930    79.3390    84.7020 hc         1 813       0.044033
     56 H30         25.0400    81.0020    84.1750 hc         1 813       0.044033
     57 H31         34.8800    80.4080    84.7730 ho         1 813       0.503000
     58 H32         25.9310    77.9460    87.8270 ho         1 813       0.440000
     59 H14         28.8090    78.7210    87.8280 hc         1 813       0.053700
     60 O06         34.1390    78.6470    84.4560 o          1 813      -0.604100
@<TRIPOS>BOND
     1     1    16 1   
     2     1    28 1   
     3     1    29 1   
     4     1    30 1   
     5     2     3 1   
     6     2    20 1   
     7     2    21 1   
     8     2    31 1   
     9     3    19 1   
    10     3    32 1   
    11     3    33 1   
    12     4     5 1   
    13     4     8 2   
    14     4    34 1   
    15     5    21 1   
    16     5    35 1   
    17     5    36 1   
    18     6     7 1   
    19     6     9 1   
    20     6    37 1   
    21     6    38 1   
    22     7    23 2   
    23     7    39 1   
    24     8     9 1   
    25     8    40 1   
    26     9    17 1   
    27     9    18 1   
    28    10    11 2   
    29    10    16 1   
    30    10    20 1   
    31    11    13 1   
    32    11    26 1   
    33    12    14 1   
    34    12    16 2   
    35    12    41 1   
    36    13    15 2   
    37    13    42 1   
    38    14    15 1   
    39    14    60 2   
    40    15    25 1   
    41    17    43 1   
    42    17    44 1   
    43    17    45 1   
    44    18    46 1   
    45    18    47 1   
    46    18    48 1   
    47    19    23 1   
    48    19    27 1   
    49    19    49 1   
    50    20    50 1   
    51    20    59 1   
    52    21    22 1   
    53    21    26 1   
    54    22    51 1   
    55    22    52 1   
    56    22    53 1   
    57    23    24 1   
    58    24    54 1   
    59    24    55 1   
    60    24    56 1   
    61    25    57 1   
    62    27    58 1   
@<TRIPOS>SUBSTRUCTURE
     1 813         1 TEMP              0 ****  ****    0 ROOT
