@<TRIPOS>MOLECULE
813
   60    62     1     0     0
SMALL
bcc


@<TRIPOS>ATOM
      1 C10         29.9020    77.1150    85.8790 c3         1 813      -0.076900
      2 C11         28.0970    80.6870    87.3880 c6         1 813      -0.072700
      3 C12         26.8260    80.3980    88.2030 c3         1 813      -0.104400
      4 C13         27.2520    83.4750    88.5110 c2         1 813      -0.179200
      5 C14         28.6050    83.1490    87.9650 c3         1 813      -0.040200
      6 C15         24.0860    82.5500    87.8400 c3         1 813      -0.033200
      7 C16         24.4650    81.9280    86.5310 c2         1 813      -0.171200
      8 C17         26.2240    83.7760    87.7240 c2         1 813      -0.143200
      9 C18         24.7760    83.9210    88.1070 c3         1 813      -0.008800
     10 C01         30.2040    79.4970    86.5290 cc         1 813      -0.239200
     11 C02         30.8590    80.6980    86.7110 cd         1 813       0.263100
     12 C03         31.9710    78.2070    85.2400 cd         1 813      -0.306200
     13 C04         32.1380    81.1130    86.2480 cd         1 813      -0.208000
     14 C05         33.0510    79.0900    84.9960 c          1 813       0.537500
     15 C07         33.0740    80.4630    85.5140 cc         1 813       0.092900
     16 C09         30.7580    78.3590    85.8800 cc         1 813       0.087800
     17 C19         24.1380    85.0080    87.2380 c3         1 813      -0.083100
     18 C20         24.5810    84.2810    89.5780 c3         1 813      -0.083100
     19 C21         25.5890    79.8860    87.4520 c3         1 813       0.189300
     20 C23         28.8190    79.3720    87.1040 c6         1 813      -0.031200
     21 C24         29.0430    81.6710    88.0880 c6         1 813       0.187800
     22 C25         29.3270    81.2950    89.5360 c3         1 813      -0.109100
     23 C27         25.1360    80.7910    86.3210 c2         1 813      -0.101400
     24 C28         25.4650    80.3620    84.9180 c3         1 813      -0.045900
     25 O08         34.1920    81.1040    85.1980 oh         1 813      -0.485100
     26 O22         30.3080    81.7070    87.3920 os         1 813      -0.347900
     27 O26         25.7560    78.5830    86.9270 oh         1 813      -0.595800
     28 H1          29.5410    76.8710    86.8780 hc         1 813       0.051033
     29 H2          29.0210    77.2420    85.2450 hc         1 813       0.051033
     30 H3          30.4540    76.2580    85.5030 hc         1 813       0.051033
     31 H4          27.8170    81.1480    86.4330 hc         1 813       0.075700
     32 H5          27.0630    79.6700    88.9880 hc         1 813       0.049700
     33 H6          26.5050    81.2950    88.7280 hc         1 813       0.049700
     34 H7          27.1210    83.4070    89.5880 ha         1 813       0.121000
     35 H8          29.3690    83.7540    88.4630 hc         1 813       0.060700
     36 H9          28.6300    83.4130    86.9040 hc         1 813       0.060700
     37 H10         23.0020    82.7130    87.8710 hc         1 813       0.045700
     38 H11         24.3180    81.8810    88.6710 hc         1 813       0.045700
     39 H12         24.1810    82.4990    85.6500 ha         1 813       0.122000
     40 H13         26.4130    83.8190    86.6530 ha         1 813       0.121000
     41 H15         32.1510    77.2250    84.8180 ha         1 813       0.145000
     42 H16         32.3940    82.1300    86.5280 ha         1 813       0.160000
     43 H17         23.0730    85.1070    87.4580 hc         1 813       0.036367
     44 H18         24.6080    85.9760    87.4210 hc         1 813       0.036367
     45 H19         24.2400    84.7920    86.1730 hc         1 813       0.036367
     46 H20         23.5170    84.3560    89.8110 hc         1 813       0.036367
     47 H21         25.0060    83.5280    90.2430 hc         1 813       0.036367
     48 H22         25.0430    85.2410    89.8140 hc         1 813       0.036367
     49 H23         24.7900    79.8630    88.2070 h1         1 813       0.032700
     50 H24         28.1890    78.8010    86.4250 hc         1 813       0.053700
     51 H25         28.4320    81.3990    90.1480 hc         1 813       0.048033
     52 H26         29.6720    80.2640    89.6320 hc         1 813       0.048033
     53 H27         30.0920    81.9480    89.9560 hc         1 813       0.048033
     54 H28         26.5370    80.1960    84.7830 hc         1 813       0.044033
     55 H29         24.9690    79.4290    84.6470 hc         1 813       0.044033
     56 H30         25.1550    81.1230    84.2020 hc         1 813       0.044033
     57 H31         34.7130    80.4560    84.6770 ho         1 813       0.464000
     58 H32         26.0380    78.0080    87.6450 ho         1 813       0.401000
     59 H14         28.8580    78.7790    88.0260 hc         1 813       0.053700
     60 O06         34.0580    78.7550    84.3460 o          1 813      -0.604100
@<TRIPOS>BOND
     1     1    16 1   
     2     1    28 1   
     3     1    29 1   
     4     1    30 1   
     5     2     3 1   
     6     2    20 1   
     7     2    21 1   
     8     2    31 1   
     9     3    19 1   
    10     3    32 1   
    11     3    33 1   
    12     4     5 1   
    13     4     8 2   
    14     4    34 1   
    15     5    21 1   
    16     5    35 1   
    17     5    36 1   
    18     6     7 1   
    19     6     9 1   
    20     6    37 1   
    21     6    38 1   
    22     7    23 2   
    23     7    39 1   
    24     8     9 1   
    25     8    40 1   
    26     9    17 1   
    27     9    18 1   
    28    10    11 2   
    29    10    16 1   
    30    10    20 1   
    31    11    13 1   
    32    11    26 1   
    33    12    14 1   
    34    12    16 2   
    35    12    41 1   
    36    13    15 2   
    37    13    42 1   
    38    14    15 1   
    39    14    60 2   
    40    15    25 1   
    41    17    43 1   
    42    17    44 1   
    43    17    45 1   
    44    18    46 1   
    45    18    47 1   
    46    18    48 1   
    47    19    23 1   
    48    19    27 1   
    49    19    49 1   
    50    20    50 1   
    51    20    59 1   
    52    21    22 1   
    53    21    26 1   
    54    22    51 1   
    55    22    52 1   
    56    22    53 1   
    57    23    24 1   
    58    24    54 1   
    59    24    55 1   
    60    24    56 1   
    61    25    57 1   
    62    27    58 1   
@<TRIPOS>SUBSTRUCTURE
     1 813         1 TEMP              0 ****  ****    0 ROOT
