@<TRIPOS>MOLECULE
815
   50    54     1     0     0
SMALL
abcg2


@<TRIPOS>ATOM
      1 C1          -1.0990     0.6330     2.6230 ca         1 815      -0.072000
      2 C2          -1.3470     1.4610     3.6820 ca         1 815      -0.114000
      3 C3          -1.2540     0.9830     5.0090 ca         1 815       0.027000
      4 C4          -0.8870    -0.3630     5.2200 ca         1 815      -0.131000
      5 C5          -0.6500    -1.1980     4.1080 ca         1 815      -0.065000
      6 C6          -0.7520    -0.7200     2.8260 ca         1 815      -0.130300
      7 C10         -1.5270     1.7990     6.1330 ca         1 815      -0.209000
      8 C11         -1.4250     1.2410     7.3720 ca         1 815       0.385900
      9 N12         -1.0570    -0.0350     7.6040 nb         1 815      -0.765000
     10 C13         -0.7880    -0.8170     6.5830 ca         1 815       0.621900
     11 C16         -1.1220    -0.8240    -4.4740 ca         1 815      -0.194000
     12 C17         -2.1460    -1.6730    -4.8820 ca         1 815      -0.051000
     13 C18         -3.3610    -1.0860    -5.1650 ca         1 815      -0.143000
     14 C19         -3.5070     0.3030    -5.0400 ca         1 815       0.334900
     15 N20         -2.5420     1.1150    -4.6600 nb         1 815      -0.622000
     16 C21         -1.3600     0.5590    -4.3780 ca         1 815       0.343800
     17 C25         -0.1970     1.2750    -3.9510 cc         1 815      -0.117800
     18 C26          0.8410     0.4360    -3.7500 cd         1 815      -0.303500
     19 S27          0.5030    -1.2310    -4.0650 ss         1 815       0.189400
     20 N28          0.6770    -1.1770     0.9040 n          1 815      -0.408800
     21 C29          0.6440    -0.5800    -0.2980 c          1 815       0.533000
     22 C30          2.0950    -0.3790    -0.7370 c5         1 815       0.141500
     23 C31          2.8700    -0.4500     0.5730 c5         1 815      -0.092400
     24 C32          2.0170    -1.3880     1.4220 c5         1 815       0.095000
     25 N37          2.3080     0.8450    -1.4750 n7         1 815      -0.879300
     26 S38          2.4130     0.8680    -3.1070 sy         1 815       1.205200
     27 O39          2.6800     2.2440    -3.4730 o          1 815      -0.532000
     28 O40          3.3070    -0.2080    -3.4960 o          1 815      -0.532000
     29 O41         -0.3420    -0.2560    -0.9330 o          1 815      -0.545000
     30 N42         -0.4530    -2.1050     6.8570 nv         1 815      -1.055900
     31 C43         -0.4920    -1.6040     1.6350 c3         1 815       0.155300
     32 H11         -1.1850     1.0130     1.6120 ha         1 815       0.125000
     33 H21         -1.6250     2.4940     3.5130 ha         1 815       0.122000
     34 H51         -0.3940    -2.2420     4.2490 ha         1 815       0.106000
     35 H101        -1.8130     2.8340     6.0080 ha         1 815       0.126000
     36 H111        -1.6370     1.8320     8.2570 h4         1 815       0.017100
     37 H181        -4.2030    -1.6850    -5.4830 ha         1 815       0.125000
     38 H191        -4.4640     0.7590    -5.2660 h4         1 815       0.023100
     39 H251        -0.1680     2.3450    -3.8030 ha         1 815       0.229000
     40 H301         2.3730    -1.2280    -1.3690 h1         1 815       0.101700
     41 H311         2.9080     0.5400     1.0340 hc         1 815       0.071700
     42 H312         3.8900    -0.8040     0.4440 hc         1 815       0.071700
     43 H321         2.0630    -1.1450     2.4850 h1         1 815       0.053700
     44 H322         2.3140    -2.4340     1.3040 h1         1 815       0.053700
     45 H371         1.8700     1.6770    -1.0940 hn         1 815       0.499000
     46 H421        -0.2430    -2.3050     7.8220 hn         1 815       0.474500
     47 H422         0.1100    -2.6210     6.2030 hn         1 815       0.474500
     48 H431        -0.3570    -2.6400     1.9530 h1         1 815       0.066200
     49 H432        -1.3430    -1.5830     0.9540 h1         1 815       0.066200
     50 H171        -1.9990    -2.7410    -4.9720 ha         1 815       0.128000
@<TRIPOS>BOND
     1     1     2 ar  
     2     1     6 ar  
     3     1    32 1   
     4     2     3 ar  
     5     2    33 1   
     6     3     4 ar  
     7     3     7 ar  
     8     4     5 ar  
     9     4    10 ar  
    10     5     6 ar  
    11     5    34 1   
    12     6    31 1   
    13     7     8 ar  
    14     7    35 1   
    15     8     9 ar  
    16     8    36 1   
    17     9    10 ar  
    18    10    30 1   
    19    11    12 ar  
    20    11    16 ar  
    21    11    19 1   
    22    12    13 ar  
    23    12    50 1   
    24    13    14 ar  
    25    13    37 1   
    26    14    15 ar  
    27    14    38 1   
    28    15    16 ar  
    29    16    17 1   
    30    17    18 2   
    31    17    39 1   
    32    18    19 1   
    33    18    26 1   
    34    20    21 1   
    35    20    24 1   
    36    20    31 1   
    37    21    22 1   
    38    21    29 2   
    39    22    23 1   
    40    22    25 1   
    41    22    40 1   
    42    23    24 1   
    43    23    41 1   
    44    23    42 1   
    45    24    43 1   
    46    24    44 1   
    47    25    26 1   
    48    25    45 1   
    49    26    27 2   
    50    26    28 2   
    51    30    46 1   
    52    30    47 1   
    53    31    48 1   
    54    31    49 1   
@<TRIPOS>SUBSTRUCTURE
     1 815         1 TEMP              0 ****  ****    0 ROOT
