@<TRIPOS>MOLECULE
815
   50    54     1     0     0
SMALL
No Charge or Current Charge


@<TRIPOS>ATOM
      1 C1          -1.4280    -1.6050     2.1410 ca         1 815      -0.072000
      2 C2          -2.3920    -0.7370     2.6790 ca         1 815      -0.114000
      3 C3          -2.1620    -0.1170     3.9190 ca         1 815       0.027000
      4 C4          -0.9690    -0.3580     4.6260 ca         1 815      -0.131000
      5 C5          -0.0030    -1.2330     4.0820 ca         1 815      -0.065000
      6 C6          -0.2310    -1.8580     2.8390 ca         1 815      -0.130300
      7 C10         -3.1060     0.7550     4.4850 ca         1 815      -0.209000
      8 C11         -2.8300     1.3520     5.7260 ca         1 815       0.385900
      9 N12         -1.6870     1.1290     6.4130 nb         1 815      -0.765000
     10 C13         -0.8070     0.3000     5.8650 ca         1 815       0.621900
     11 C16         -1.9380     0.4420    -3.6320 ca         1 815      -0.194000
     12 C17         -3.3380     0.4830    -3.6870 ca         1 815      -0.051000
     13 C18         -3.9230     1.7370    -3.9470 ca         1 815      -0.143000
     14 C19         -3.0910     2.8620    -4.1340 ca         1 815       0.334900
     15 N20         -1.7370     2.8020    -4.0770 nb         1 815      -0.622000
     16 C21         -1.1970     1.5920    -3.8280 ca         1 815       0.343800
     17 C25          0.2210     1.3630    -3.7320 cc         1 815      -0.117800
     18 C26          0.5090     0.0290    -3.4560 cd         1 815      -0.303500
     19 S27         -0.9450    -0.9990    -3.3230 ss         1 815       0.189400
     20 N28          1.7470    -2.0950     1.3430 n          1 815      -0.408800
     21 C29          1.4970    -2.0180    -0.0300 c          1 815       0.533000
     22 C30          2.6620    -1.1480    -0.6000 c5         1 815       0.141500
     23 C31          3.1040    -0.3130     0.6340 c5         1 815      -0.092400
     24 C32          2.9160    -1.3240     1.8020 c5         1 815       0.095000
     25 N37          2.3140    -0.1660    -1.6810 n7         1 815      -0.879300
     26 S38          2.1320    -0.6570    -3.2650 sy         1 815       1.205200
     27 O39          3.1150     0.1050    -4.0390 o          1 815      -0.532000
     28 O40          2.0650    -2.1200    -3.2660 o          1 815      -0.532000
     29 O41          0.5230    -2.4960    -0.5960 o          1 815      -0.545000
     30 N42          0.2630     0.2060     6.6640 nv         1 815      -1.055900
     31 C43          0.8160    -2.7920     2.2470 c3         1 815       0.155300
     32 H11         -1.6100    -2.0800     1.1790 ha         1 815       0.125000
     33 H21         -3.3140    -0.5480     2.1330 ha         1 815       0.122000
     34 H51          0.9230    -1.4350     4.6160 ha         1 815       0.106000
     35 H101        -4.0420     0.9730     3.9780 ha         1 815       0.126000
     36 H111        -3.5470     2.0320     6.1840 h4         1 815       0.017100
     37 H181        -5.0030     1.8440    -4.0030 ha         1 815       0.125000
     38 H191        -3.5240     3.8410    -4.3360 h4         1 815       0.023100
     39 H251         0.9710     2.1380    -3.8610 ha         1 815       0.229000
     40 H301         3.4700    -1.8310    -0.9010 h1         1 815       0.101700
     41 H311         2.4530     0.5570     0.7820 hc         1 815       0.071700
     42 H312         4.1320     0.0560     0.5530 hc         1 815       0.071700
     43 H321         2.7350    -0.8190     2.7600 h1         1 815       0.053700
     44 H322         3.7900    -1.9810     1.9120 h1         1 815       0.053700
     45 H371         1.4010     0.2520    -1.5060 hn         1 815       0.499000
     46 H421         0.2940     0.9110     7.3900 hn         1 815       0.474500
     47 H422         1.1480    -0.0320     6.2340 hn         1 815       0.474500
     48 H431         1.3950    -3.2520     3.0590 h1         1 815       0.066200
     49 H432         0.3180    -3.6100     1.7090 h1         1 815       0.066200
     50 H171        -3.9440    -0.4080    -3.5360 ha         1 815       0.128000
@<TRIPOS>BOND
     1     1     2 ar  
     2     1     6 ar  
     3     1    32 1   
     4     2     3 ar  
     5     2    33 1   
     6     3     4 ar  
     7     3     7 ar  
     8     4     5 ar  
     9     4    10 ar  
    10     5     6 ar  
    11     5    34 1   
    12     6    31 1   
    13     7     8 ar  
    14     7    35 1   
    15     8     9 ar  
    16     8    36 1   
    17     9    10 ar  
    18    10    30 1   
    19    11    12 ar  
    20    11    16 ar  
    21    11    19 1   
    22    12    13 ar  
    23    12    50 1   
    24    13    14 ar  
    25    13    37 1   
    26    14    15 ar  
    27    14    38 1   
    28    15    16 ar  
    29    16    17 1   
    30    17    18 2   
    31    17    39 1   
    32    18    19 1   
    33    18    26 1   
    34    20    21 1   
    35    20    24 1   
    36    20    31 1   
    37    21    22 1   
    38    21    29 2   
    39    22    23 1   
    40    22    25 1   
    41    22    40 1   
    42    23    24 1   
    43    23    41 1   
    44    23    42 1   
    45    24    43 1   
    46    24    44 1   
    47    25    26 1   
    48    25    45 1   
    49    26    27 2   
    50    26    28 2   
    51    30    46 1   
    52    30    47 1   
    53    31    48 1   
    54    31    49 1   
@<TRIPOS>SUBSTRUCTURE
     1 815         1 TEMP              0 ****  ****    0 ROOT
